139   

Si        0.000000000     0.000000000     0.000000000
 C        1.869296084     0.000000000     0.000000000
 C       -0.650037573     1.727874195     0.000000000
 C        0.161429560     2.809303950    -0.356630652
 C       -0.344866665     4.109051224    -0.351559816
 C       -1.673400666     4.356723139     0.003682582
 C       -2.486640257     3.271243948     0.356491113
 C       -1.983592146     1.973037973     0.353758190
 C       -2.246720800     5.698468571     0.023485677
 C       -1.578222259     6.821327516    -0.290130724
 C       -2.153200892     8.162430809    -0.269781310
 C       -1.342867085     9.249412206    -0.620303546
 C       -1.849032256    10.547929047    -0.615137374
 C       -3.177721424    10.789022386    -0.252327293
 C       -3.990196517     9.703281001     0.100137639
 C       -3.482693837     8.405981229     0.089210421
Si       -3.892028171    12.491941911    -0.230751110
 C       -5.253010947    12.578865874    -1.460130116
 C       -5.628582180    11.545649429    -2.224748735
 C       -6.707385427    11.577021767    -3.214334124
 C       -6.975798293    10.403184325    -3.935981280
 C       -7.982263349    10.364852697    -4.886409786
 C       -8.794930657    11.494922546    -5.100347061
 C       -8.540331913    12.665620117    -4.373119972
 C       -7.496205587    12.704157390    -3.452885029
 N       -9.808791044    11.382883579    -6.092762753
 C      -10.835424538    10.360324679    -5.804250888
 C      -10.386639967    12.653236206    -6.562245598
 C      -11.847890883    10.774703888    -4.719749555
 C      -12.246825020     9.612563533    -3.792588323
 N      -11.301640526     9.322921246    -2.695899092
 C      -10.872224795    10.417983939    -1.923667899
 C      -11.768129385    11.477388220    -1.662279835
 C      -11.364917743    12.564278090    -0.904330582
 C      -10.090759472    12.609362025    -0.323428819
 C       -9.217450991    11.541788905    -0.551963952
 C       -9.594817353    10.458993756    -1.334132173
 C      -10.283851727     8.316556065    -3.038434292
 C       -9.717712774    13.782369440     0.467433598
 C       -8.528479832    13.927528281     1.064790478
Si       -7.997708566    15.364556125     2.065890827
 C       -6.512438481    16.026179954     1.187756545
 C       -6.417852822    15.875210145    -0.200888250
 C       -5.310866451    16.363049528    -0.891778672
 C       -4.273274239    17.007491642    -0.211096884
 C       -4.370982297    17.158129401     1.178090667
 C       -5.479495712    16.676172311     1.871228815
 C       -3.097027986    17.532688754    -0.896708874
 C       -2.889832913    17.449566610    -2.221957203
 C       -1.717185086    17.971764684    -2.915020120
 C       -0.674991774    18.622773430    -2.249223740
 C        0.427664938    19.106250823    -2.952714475
 C        0.509715571    18.953632668    -4.341036460
 C       -0.532922380    18.300356888    -5.009885975
 C       -1.629967615    17.812559725    -4.304177716
Si        1.969633480    19.593636605    -5.273310772
 C        2.665144266    21.102244982    -4.415801199
 C        3.263011847    18.246536655    -5.333591383
 C        1.464317229    20.063661238    -7.010653599
 C       -9.303423829    16.692064272     2.161067927
 C       -7.547514405    14.769955148     3.777041563
 C       -4.537096872    12.862415094     1.479028030
 C       -2.599693866    13.754512789    -0.697739357
 C       -0.628355578    -0.865314504    -1.532329137
 C       -0.604775865    -0.890679031     1.528493078
 H        1.208354888     2.678914733    -0.644144444
 H        0.309111817     4.933962530    -0.629052131
 H       -3.524353519     3.442133064     0.636933874
 H       -2.665435362     1.167086627     0.638977364
 H       -3.298253687     5.741446003     0.321973001
 H       -0.526292453     6.778715833    -0.587705305
 H       -0.305261752     9.081739523    -0.902759779
 H       -1.170848419    11.356600021    -0.902392660
 H       -5.036955964     9.832738017     0.394716755
 H       -4.132694538     7.578301512     0.366399534
 H       -5.747409634    13.559745154    -1.527640076
 H       -5.136313349    10.562325754    -2.169645260
 H       -6.367814051     9.513732233    -3.765444235
 H       -8.141136927     9.468737591    -5.481998172
 H       -9.160140749    13.546927936    -4.507417818
 H       -7.312158343    13.625900765    -2.899342610
 H      -11.016488855    12.450359012    -7.445611054
 H       -9.571001753    13.322114411    -6.890615677
 H      -10.997677028    13.181925085    -5.814318681
 H      -10.729047821     7.519402359    -3.654898406
 H       -9.927246435     7.838641326    -2.106689131
 H       -9.413670683     8.733762907    -3.574830250
 H      -12.779241488    11.448511385    -2.056842348
 H      -12.062286516    13.386584284    -0.742171088
 H       -8.212605934    11.555862955    -0.122454353
 H       -8.876693884     9.661887319    -1.503004471
 H      -10.511671487    14.537285873     0.528342826
 H       -7.753231503    13.145759466     0.984142003
 H       -7.200269382    15.376084368    -0.784639637
 H       -5.259512099    16.235264229    -1.972279976
 H       -3.574029960    17.657761348     1.725383264
 H       -5.503594052    16.823171255     2.953955907
 H       -2.365101493    18.019444246    -0.246283855
 H       -3.624251356    16.962390781    -2.871670492
 H       -0.716694150    18.758596510    -1.169973220
 H        1.211223154    19.606437825    -2.376684081
 H       -0.523609493    18.152058719    -6.093356174
 H       -2.428907073    17.304605937    -4.841998703
 H      -11.361838179    10.142928678    -6.760816653
 H      -10.320588648     9.416916267    -5.519190384
 H      -11.423330267    11.604542030    -4.115182099
 H      -12.753576838    11.196712425    -5.190884183
 H      -13.232533685     9.839081570    -3.317620227
 H      -12.409450950     8.684999354    -4.383559703
 H        2.267582034    -1.027843099     0.072533834
 H        2.270743066     0.571631585     0.856239667
 H        2.278077582     0.446873409    -0.923329919
 H        3.494241864    21.544580051    -4.996411710
 H        3.057759040    20.859491937    -3.412941392
 H        1.892994012    21.883190857    -4.292203974
 H        3.583954131    17.950769569    -4.318588429
 H        2.876069816    17.339905945    -5.832780184
 H        4.161038521    18.574715767    -5.885889261
 H        0.638756787    20.798280479    -7.002518034
 H        2.306832956    20.518051407    -7.561987273
 H        1.125657104    19.187336075    -7.590515515
 H       -9.580241707    17.060298721     1.156430472
 H      -10.222968736    16.319105655     2.646604819
 H       -8.950292355    17.562628959     2.742617457
 H       -6.724999275    14.032177661     3.745870567
 H       -7.226438787    15.602416540     4.426769968
 H       -8.409609427    14.281123244     4.266829305
 H       -5.437826907    12.273313897     1.722780966
 H       -3.775027109    12.640281712     2.247255249
 H       -4.794307429    13.934887781     1.573942158
 H       -2.206817480    13.582359904    -1.715741195
 H       -3.019266461    14.779751949    -0.679367429
 H       -1.746080391    13.740130957     0.001931238
 H       -0.282614231    -0.357087253    -2.450663625
 H       -0.277041997    -1.911100502    -1.577037803
 H       -1.732486734    -0.881481654    -1.561982614
 H       -0.294362479    -0.361020036     2.447660353
 H       -1.705725957    -0.969686120     1.547592035
 H       -0.197707887    -1.915870388     1.582223332

