139   

Si        0.000000000     0.000000000     0.000000000
 C        1.869241022     0.000000000     0.000000000
 C       -0.650102983     1.727918242     0.000000000
 C        0.153208576     2.805621665    -0.385559699
 C       -0.352273396     4.105655894    -0.380340193
 C       -1.671798099     4.357323376     0.004335884
 C       -2.476943550     3.275740099     0.386212278
 C       -1.974690685     1.977215717     0.383086000
 C       -2.244500725     5.699372744     0.025704269
 C       -1.583949076     6.819306732    -0.314000144
 C       -2.159549077     8.160245164    -0.291590642
 C       -1.357456109     9.244856993    -0.671574740
 C       -1.863341783    10.542286858    -0.665920890
 C       -3.189062112    10.783974855    -0.285046687
 C       -3.992130922     9.703693946     0.094575658
 C       -3.480253735     8.406575803     0.093641093
Si       -3.862802673    12.501284557    -0.276286851
 C       -5.692874639    12.402469789    -0.276033203
 C       -6.498489744    12.900181724     0.670923367
 C       -7.959710135    12.802577844     0.638401177
 C       -8.698759369    13.364554800     1.691491633
 C      -10.081422818    13.299263155     1.708067780
 C      -10.776260041    12.687369069     0.643271799
 C      -10.040335122    12.119869443    -0.408925800
 C       -8.650257586    12.164584095    -0.393847539
 N      -12.187488551    12.646964003     0.708808608
 C      -12.852493865    13.951794090     0.927075905
 C      -12.869394107    11.801454503    -0.284085258
 C      -12.201334724    15.158561475     0.231741189
 C      -12.145117340    15.005692917    -1.298431724
 N      -11.239745598    15.971074665    -1.943698552
 C      -11.569427033    17.332909511    -1.860184158
 C      -12.915802286    17.736652873    -1.727191738
 C      -13.240787996    19.081021237    -1.644788983
 C      -12.256660415    20.074717146    -1.741018521
 C      -10.927474295    19.674260075    -1.906624089
 C      -10.581616823    18.331874834    -1.975036082
 C       -9.817993007    15.616343276    -1.789397601
 C      -12.655628256    21.479727957    -1.647284967
 C      -11.803612711    22.510490100    -1.725436664
Si      -12.262228940    24.280022650    -1.613013883
 C      -11.761004959    25.113258835    -3.181612476
 C      -11.520092268    24.364475867    -4.338038331
 C      -11.141365534    24.994468108    -5.523138736
 C      -11.001878557    26.383957826    -5.580114155
 C      -11.248280293    27.131928646    -4.420817076
 C      -11.624501027    26.505925656    -3.235200817
 C      -10.607960212    27.085907985    -6.797444015
 C      -10.343643542    26.489144560    -7.972125999
 C       -9.949666148    27.189771388    -9.190117119
 C       -9.807439450    28.578841777    -9.249037193
 C       -9.428717980    29.207081851   -10.435031917
 C       -9.192408020    28.459173335   -11.593236855
 C       -9.335296192    27.066933091   -11.537117495
 C       -9.705768770    26.441459701   -10.349327262
Si       -8.690772123    29.285123407   -13.166416682
 C       -9.338900124    31.038268714   -13.208724946
 C       -6.824299463    29.298845416   -13.253915389
 C       -9.387243459    28.348369483   -14.626712574
 C      -14.101535884    24.504476304    -1.382552001
 C      -11.340801883    25.026855234    -0.168973834
 C       -3.217605686    13.387377209     1.234435923
 C       -3.336342433    13.405981194    -1.823752892
 C       -0.628159871    -0.864440301    -1.532816405
 C       -0.604083428    -0.892503785     1.527774666
 H        1.192775541     2.671755537    -0.697146954
 H        0.295194576     4.927482888    -0.681003365
 H       -3.507893923     3.449653014     0.689346727
 H       -2.650039687     1.174261203     0.691505027
 H       -3.289054058     5.745038679     0.348526940
 H       -0.539763297     6.774441206    -0.636776159
 H       -0.326117937     9.074074237    -0.974554242
 H       -1.190891940    11.348774055    -0.970420333
 H       -5.034508743     9.835104563     0.403857883
 H       -4.124176647     7.582516968     0.396267041
 H       -6.103432938    11.881577207    -1.156540288
 H       -6.119455233    13.425321883     1.557627927
 H       -8.177509570    13.852578674     2.516023674
 H      -10.638424199    13.712479662     2.545959096
 H      -10.542223994    11.639183670    -1.242922906
 H       -8.098955373    11.703045194    -1.214890025
 H      -13.925637648    11.681275485     0.016316921
 H      -12.422652433    10.790725720    -0.274102248
 H      -12.841714752    12.191067357    -1.313449392
 H       -9.693287914    14.519099580    -1.756884464
 H       -9.360087764    16.029505519    -0.875373252
 H       -9.258782226    15.979886878    -2.670452571
 H      -13.709381642    16.997330136    -1.680931444
 H      -14.285243623    19.367746753    -1.517811315
 H      -10.140609972    20.426487706    -1.987541890
 H       -9.537954333    18.065533135    -2.109763591
 H      -13.736538109    21.613845873    -1.507233492
 H      -10.722928976    22.344902489    -1.864583794
 H      -11.616369670    23.273319910    -4.353293042
 H      -10.956635917    24.389776909    -6.409395463
 H      -11.145546589    28.215006259    -4.444458875
 H      -11.802862969    27.140477577    -2.362977396
 H      -10.536820907    28.172808455    -6.696181952
 H      -10.415095840    25.401987992    -8.073167041
 H       -9.991419292    29.184610763    -8.363469032
 H       -9.331565219    30.296145111   -10.417872949
 H       -9.164467906    26.430924294   -12.410053143
 H       -9.809000153    25.358034158   -10.325202366
 H      -13.920016188    13.872688083     0.627400063
 H      -12.854337237    14.124449881     2.031016224
 H      -12.753557922    16.081163142     0.498147766
 H      -11.176584946    15.315359715     0.626174614
 H      -11.798320944    13.983328014    -1.576427617
 H      -13.159760451    15.110107289    -1.742892150
 H        2.267343859    -1.028037720     0.071415360
 H        2.270723686     0.570624715     0.856899820
 H        2.278407273     0.447818432    -0.922667882
 H       -9.115279395    31.522843659   -14.175829235
 H       -8.888462876    31.661091777   -12.416169947
 H      -10.435125254    31.062909331   -13.071130168
 H       -6.385741826    29.849806238   -12.402435068
 H       -6.413294350    28.273570307   -13.228031504
 H       -6.467967061    29.778790465   -14.182169801
 H      -10.486560485    28.259105728   -14.556449191
 H       -9.156001250    28.861252284   -15.577223152
 H       -8.973793043    27.326929350   -14.693874474
 H      -14.667792747    24.070043735    -2.226681376
 H      -14.453946461    24.019218615    -0.455218804
 H      -14.371247993    25.574034845    -1.323076354
 H      -10.247286562    24.973437275    -0.318676925
 H      -11.605772051    26.088195900    -0.022179286
 H      -11.573071997    24.492163721     0.769881249
 H       -3.517743916    12.868645735     2.163516797
 H       -2.113700517    13.436432861     1.229505087
 H       -3.596954377    14.423159926     1.289044550
 H       -3.640491652    12.857969023    -2.733903454
 H       -3.794503109    14.410445307    -1.873065989
 H       -2.240985394    13.537531456    -1.865405094
 H       -0.282914810    -0.355514929    -2.450908202
 H       -0.276514167    -1.910117393    -1.578171139
 H       -1.732396132    -0.881119302    -1.562009275
 H       -0.294245238    -0.363425282     2.447411183
 H       -1.704900836    -0.973285523     1.546672526
 H       -0.195734225    -1.917301976     1.580384996

