139   

Si        0.000000000     0.000000000     0.000000000
 C        1.869439271     0.000000000     0.000000000
 C       -0.639277869     1.732105823     0.000000000
 C        0.118812276     2.777212389    -0.538345197
 C       -0.369622477     4.083483157    -0.535369610
 C       -1.627931653     4.374498940    -0.001356292
 C       -2.388115020     3.325698738     0.532879277
 C       -1.902199886     2.020678283     0.532758706
 C       -2.180269744     5.724912293     0.023711794
 C       -1.557046101     6.816223830    -0.452303808
 C       -2.111845745     8.165744559    -0.425940763
 C       -1.354691054     9.217211995    -0.957276783
 C       -1.844096526    10.522049505    -0.953605401
 C       -3.102406691    10.806069225    -0.412643946
 C       -3.861104372     9.756137992     0.120375380
 C       -3.370660345     8.451925064     0.111688297
Si       -3.788598739    12.518941303    -0.387308977
 C       -5.364294306    12.580475701    -1.318978217
 C       -5.934886355    11.533480891    -1.929727290
 C       -7.194633428    11.595007511    -2.671431638
 C       -7.686870961    10.424437200    -3.266662754
 C       -8.874182884    10.426771706    -3.979947914
 C       -9.595426425    11.626382124    -4.165591229
 C       -9.101230449    12.802315954    -3.568070377
 C       -7.933341027    12.772225256    -2.817272912
 N      -10.799131061    11.618807181    -4.890779211
 C      -10.922767825    10.642231080    -5.987009958
 C      -11.387697571    12.927866747    -5.223150431
 C       -9.922842426    10.889932012    -7.130417969
 C      -10.281581552    10.127254406    -8.416205955
 N      -11.615624276    10.417808916    -8.990924402
 C      -12.053470845    11.755741694    -8.860746747
 C      -11.204642093    12.778436207    -9.334892342
 C      -11.586729209    14.104879139    -9.231036837
 C      -12.830263132    14.458969341    -8.683542680
 C      -13.676971101    13.442219250    -8.238461237
 C      -13.305905280    12.104920231    -8.331038754
 C      -12.610497982     9.369611520    -8.711694554
 C      -13.183159084    15.877387049    -8.597840604
 C      -14.336762056    16.338598873    -8.096956906
Si      -14.787644597    18.111071459    -7.985355104
 C      -13.417090550    19.142507908    -8.663926271
 C      -12.664782371    19.995948008    -7.849900445
 C      -11.635263163    20.762922424    -8.391878567
 C      -11.328289523    20.689899430    -9.756325048
 C      -12.079197827    19.832663859   -10.566686568
 C      -13.111478771    19.066778979   -10.028615223
 C      -10.241362593    21.512405090   -10.277640520
 C       -9.850927914    21.536682768   -11.563203994
 C       -8.764451093    22.358227285   -12.086816853
 C       -8.011405347    23.216355427   -11.280416411
 C       -6.981514039    23.983563848   -11.823532817
 C       -6.676664968    23.904242379   -13.186856625
 C       -7.429677557    23.045153921   -13.996584592
 C       -8.462252779    22.284879391   -13.452842505
Si       -5.312092124    24.921662415   -13.902961505
 C       -3.950006087    25.138083165   -12.640857973
 C       -4.607672332    24.080050521   -15.416335474
 C       -6.009929848    26.589319403   -14.375255900
 C      -16.336731743    18.412449630    -8.984830011
 C      -15.110100505    18.524064964    -6.191917482
 C       -4.109665266    13.012640142     1.386255417
 C       -2.596393801    13.727170695    -1.169038306
 C       -0.631488134    -0.858860394    -1.534641604
 C       -0.603730721    -0.899207117     1.523965543
 H        1.109715548     2.612249547    -0.970452162
 H        0.242155936     4.879314831    -0.956670425
 H       -3.370904884     3.530191494     0.953895345
 H       -2.540637542     1.244865787     0.964379951
 H       -3.175273410     5.803118239     0.472077617
 H       -0.562171531     6.738807888    -0.900496794
 H       -0.372430049     9.016450846    -1.380688386
 H       -1.209993879    11.300610057    -1.386213542
 H       -4.851617338     9.919028904     0.557773432
 H       -3.979482561     7.652820606     0.530854932
 H       -5.828785489    13.578115942    -1.343744927
 H       -5.487300988    10.528497531    -1.924750021
 H       -7.132257477     9.491087541    -3.158851406
 H       -9.243378921     9.495297372    -4.398321427
 H       -9.628318608    13.744730937    -3.678114421
 H       -7.581889925    13.693864218    -2.351250859
 H      -12.288391979    12.795867265    -5.849495495
 H      -10.699804625    13.595536797    -5.768050945
 H      -11.711850396    13.424665795    -4.291210181
 H      -12.211614757     8.399037011    -9.056731517
 H      -13.523006993     9.562949918    -9.304083533
 H      -12.889447485     9.274900919    -7.650902972
 H      -10.250750261    12.517463664    -9.787779888
 H      -10.914682658    14.885394199    -9.591761152
 H      -14.650075754    13.691142020    -7.813079095
 H      -13.991366133    11.343033331    -7.973585208
 H      -12.398378309    16.542082078    -8.988605681
 H      -15.107338439    15.654689321    -7.709751605
 H      -12.855849194    20.092094333    -6.777676117
 H      -11.063521905    21.424189021    -7.743318308
 H      -11.861413062    19.757530660   -11.630694897
 H      -13.663992746    18.414775630   -10.712594377
 H       -9.740071552    22.135528663    -9.531165006
 H      -10.352834376    20.913726788   -12.309650592
 H       -8.225296647    23.293050582   -10.215805934
 H       -6.429159515    24.637192594   -11.142508337
 H       -7.237128756    22.941234874   -15.068026624
 H       -9.037548047    21.624735237   -14.099436615
 H      -10.801728571     9.616906192    -5.573203891
 H      -11.970338046    10.693331915    -6.364134722
 H       -9.862911164    11.977416604    -7.340504539
 H       -8.902790421    10.605270678    -6.804663421
 H       -9.535708404    10.379815391    -9.209063804
 H      -10.187967749     9.032895556    -8.244692313
 H        2.268169910    -1.027413610     0.074994234
 H        2.269637627     0.574260623     0.855233990
 H        2.279332569     0.445780710    -0.923159187
 H       -3.090834898    25.683680743   -13.070104113
 H       -3.577583467    24.160821556   -12.283475629
 H       -4.294382072    25.706206045   -11.759129262
 H       -4.269033158    23.054362808   -15.182808413
 H       -5.351160264    24.009489634   -16.229425591
 H       -3.737968894    24.634039363   -15.812556244
 H       -6.432415941    27.111974369   -13.498275411
 H       -5.233489482    27.242003384   -14.811560132
 H       -6.820177939    26.489768985   -15.119857778
 H      -16.198092732    18.127606042   -10.043395045
 H      -17.189946442    17.830559654    -8.594007532
 H      -16.622347410    19.479895161    -8.963695145
 H      -14.231181282    18.298592442    -5.561109079
 H      -15.353454053    19.593745641    -6.062573848
 H      -15.959053524    17.941035257    -5.792315554
 H       -4.843069247    12.339260594     1.865464898
 H       -3.182284689    12.972618862     1.985444732
 H       -4.508249046    14.040006168     1.454049335
 H       -2.403462747    13.473392216    -2.227334707
 H       -2.997154623    14.756355355    -1.146577816
 H       -1.626657306    13.737749516    -0.641156653
 H       -0.285606466    -0.349031926    -2.451869979
 H       -0.283505561    -1.905609370    -1.582590041
 H       -1.735875805    -0.871744714    -1.562718732
 H       -0.307912448    -0.365814152     2.445648194
 H       -1.703313794    -0.996670347     1.533996555
 H       -0.181449041    -1.918263456     1.580157316

