139   

Si        0.000000000     0.000000000     0.000000000
 C        1.869711452     0.000000000     0.000000000
 C       -0.619051314     1.738865553     0.000000000
 C       -0.009478560     2.702416711     0.811844162
 C       -0.469336979     4.018481679     0.819234916
 C       -1.562489440     4.397577496     0.034775615
 C       -2.175618270     3.429819177    -0.771535055
 C       -1.708323765     2.117900145    -0.793049159
 C       -2.081005694     5.760494933     0.007806206
 C       -1.581839770     6.787855310     0.716203672
 C       -2.112233948     8.147165399     0.678456610
 C       -3.206965533     8.499888171    -0.114988960
 C       -3.686405154     9.809009477    -0.125656351
 C       -3.063780036    10.799691571     0.639462074
 C       -1.958043147    10.452871466     1.426541531
 C       -1.489214443     9.141611809     1.444242992
Si       -3.691992736    12.532161591     0.630264513
 C       -2.334890388    13.690417440     0.208437647
 C       -1.910935285    14.676216558     1.009556604
 C       -0.828419136    15.608791335     0.686044713
 C       -0.495745831    16.593034892     1.629690769
 C        0.518081062    17.503972585     1.382830246
 C        1.198203773    17.484325203     0.150238749
 C        0.867536995    16.507946649    -0.798109275
 C       -0.123050074    15.570698066    -0.518980845
 N        2.228608098    18.452838716    -0.028458553
 C        1.733049153    19.845856474    -0.074017549
 C        3.195675592    18.157449865    -1.099432907
 C        1.022344299    20.223351623    -1.387904874
 C       -0.206761857    21.126346021    -1.175312417
 N       -1.457742288    20.425054713    -0.816840917
 C       -1.784087212    19.301289062    -1.603980497
 C       -1.560002009    19.349480936    -2.996788307
 C       -1.871336578    18.260197539    -3.793703037
 C       -2.465738508    17.112566278    -3.251894299
 C       -2.722043271    17.082345066    -1.878359805
 C       -2.398950101    18.158691639    -1.062630205
 C       -1.660235610    20.290025016     0.635024834
 C       -2.774280208    15.989463174    -4.138159895
 C       -3.340900974    14.849972959    -3.722392614
Si       -3.754793432    13.406589230    -4.771362984
 C       -2.780181262    12.008511692    -4.054924548
 C       -1.701284752    12.297340435    -3.210935140
 C       -0.943654257    11.271217837    -2.652318224
 C       -1.238915468     9.933647676    -2.931021051
 C       -2.315717322     9.646291714    -3.779503942
 C       -3.079142146    10.671176079    -4.336112796
 C       -0.464069698     8.835869153    -2.361408107
 C        0.584339116     9.009157361    -1.538639802
 C        1.377891053     7.935209340    -0.953695857
 C        1.119995224     6.584078511    -1.197149732
 C        1.908677686     5.593125577    -0.613397474
 C        2.968817948     5.933604208     0.233100920
 C        3.224144110     7.287425195     0.484892910
 C        2.434892344     8.274687999    -0.098558263
Si        4.016185400     4.627684966     1.008693766
 C        4.021308719     3.102070954    -0.070489958
 C        5.770258754     5.240205981     1.211923868
 C        3.287568392     4.215055167     2.681004776
 C       -5.586574626    13.068177470    -4.644339513
 C       -3.264542457    13.658787470    -6.552731629
 C       -5.033321561    12.735049009    -0.654403436
 C       -4.396131525    12.904943618     2.321690894
 C       -0.607019811    -0.913741026    -1.513162061
 C       -0.631127400    -0.844178782     1.542947850
 H        0.837763515     2.459931181     1.459604988
 H        0.029512293     4.754551307     1.449671412
 H       -3.027361014     3.703074937    -1.391064923
 H       -2.223377142     1.409948625    -1.447208517
 H       -2.943138015     5.906647390    -0.649497025
 H       -0.715843306     6.649320203     1.371120298
 H       -3.700684630     7.750862304    -0.730903212
 H       -4.548466532    10.021101277    -0.764233303
 H       -1.426651802    11.189578136     2.036153055
 H       -0.625046642     8.888801056     2.056238568
 H       -1.875378263    13.509814505    -0.776858337
 H       -2.354110070    14.867195800     1.996540420
 H       -1.027574628    16.632024663     2.580185338
 H        0.804167796    18.229201217     2.141525903
 H        1.370115214    16.477683737    -1.760859892
 H       -0.359945404    14.812812972    -1.267834432
 H        4.035630866    18.869392622    -1.021843280
 H        2.784117212    18.216430828    -2.118829045
 H        3.609878994    17.145356102    -0.943111981
 H       -1.387631942    21.230006913     1.141559436
 H       -1.086307236    19.463993511     1.089132818
 H       -2.735610258    20.121380232     0.830965979
 H       -1.138269830    20.241807518    -3.449929936
 H       -1.664645348    18.307966628    -4.863115758
 H       -3.176763784    16.198112957    -1.424384852
 H       -2.599602526    18.083809565     0.002288526
 H       -2.494745084    16.169365863    -5.183729754
 H       -3.616416494    14.707981338    -2.662840086
 H       -1.410261251    13.326064923    -2.969070488
 H       -0.117118395    11.521940143    -1.988415474
 H       -2.561229326     8.611125348    -4.007191732
 H       -3.908323505    10.388728908    -4.988404494
 H       -0.796104353     7.834455052    -2.646232875
 H        0.903076394    10.016701577    -1.251366885
 H        0.294757599     6.292091789    -1.845513628
 H        1.658033221     4.552645302    -0.845783327
 H        4.038245243     7.612813558     1.137354862
 H        2.645959863     9.321757225     0.110326199
 H        1.057508087    20.003643781     0.795008116
 H        2.609179078    20.511320514     0.095678061
 H        1.733135873    20.726278402    -2.068222120
 H        0.715744439    19.300082173    -1.924154782
 H        0.008582659    21.897558159    -0.404363048
 H       -0.415564303    21.693730607    -2.114669171
 H        2.266532758    -1.030562377     0.014665390
 H        2.280319731     0.524715656     0.881058382
 H        2.270107811     0.496048564    -0.902932992
 H        4.646489015     2.302851894     0.363625437
 H        4.420337772     3.328131961    -1.075968734
 H        3.002219238     2.694510811    -0.203103749
 H        6.194356728     5.564174405     0.244197642
 H        5.829026083     6.098078036     1.903813474
 H        6.427047951     4.447928747     1.612268155
 H        2.240693670     3.872788866     2.594359286
 H        3.861193907     3.416501514     3.182400853
 H        3.290777208     5.096504728     3.346805642
 H       -5.896452693    12.887291479    -3.599080784
 H       -6.175062159    13.925272247    -5.018893660
 H       -5.876185771    12.182740517    -5.236188707
 H       -2.181590189    13.858687784    -6.648454906
 H       -3.486582622    12.764483685    -7.161873849
 H       -3.804039848    14.510611219    -7.003432308
 H       -4.725494933    12.288125471    -1.617434036
 H       -5.968233021    12.238759238    -0.341352846
 H       -5.266414226    13.799588718    -0.835330200
 H       -3.628198937    12.813329770     3.110029080
 H       -4.813438949    13.925646633     2.372480754
 H       -5.209062770    12.200986320     2.575912324
 H       -0.307373622    -0.397623659    -2.442874439
 H       -0.191694940    -1.936542814    -1.554276676
 H       -1.707305612    -1.005930464    -1.520515425
 H       -0.282241920    -0.330144487     2.456409496
 H       -1.735713360    -0.851971539     1.572357904
 H       -0.289038349    -1.892424060     1.597201186

