139   

Si        0.000000000     0.000000000     0.000000000
 C        1.869193166     0.000000000     0.000000000
 C       -0.657632521     1.724617440     0.000000000
 C        0.179296896     2.828221588    -0.189102060
 C       -0.341076687     4.122645298    -0.185075288
 C       -1.707437589     4.342712557     0.006742813
 C       -2.545377141     3.234826312     0.193870572
 C       -2.029358518     1.941958023     0.189071333
 C       -2.296851879     5.677581926     0.018789842
 C       -1.608754592     6.819583108    -0.149242917
 C       -2.199085709     8.154065177    -0.137036675
 C       -3.565726590     8.371475534     0.054974793
 C       -4.088303808     9.665036142     0.059380373
 C       -3.252504470    10.769472584    -0.126553225
 C       -1.880620949    10.554671823    -0.320945005
 C       -1.362970914     9.262869021    -0.328132562
Si       -3.912963542    12.492090278    -0.125931971
 C       -3.025905929    13.537803686     1.089898059
 C       -2.028726363    13.116607380     1.878373559
 C       -1.325503714    13.958982570     2.847078109
 C       -0.296769622    13.387439277     3.610879493
 C        0.401901178    14.137926281     4.542009145
 C        0.124976641    15.511496320     4.697132723
 C       -0.904917628    16.085732350     3.936622090
 C       -1.635859732    15.306183539     3.046712624
 N        0.867634393    16.235903427     5.663881915
 C        2.336729601    16.135868709     5.532374470
 C        0.419866348    17.616048511     5.919848036
 C        2.915144072    16.744733164     4.240591849
 C        3.172291571    15.674012583     3.160651151
 N        3.232622320    16.197524017     1.777989266
 C        1.948877762    16.641773887     1.322480207
 C        1.053790905    15.642249410     0.905625005
 C       -0.208472062    15.990881528     0.451053228
 C       -0.598759594    17.336809522     0.373541951
 C        0.304764837    18.323633451     0.773760777
 C        1.571170122    17.986619969     1.242150590
 C        4.324991018    17.166607439     1.579015656
 C       -1.944565687    17.652336845    -0.113976167
 C       -2.424092162    18.897733023    -0.229998206
Si       -4.096810831    19.333202962    -0.833735847
 C       -5.016453102    17.791471806    -1.256353172
 C       -4.800883243    17.149505927    -2.480701345
 C       -5.495511359    15.984139626    -2.801047942
 C       -6.418332065    15.433863096    -1.906439319
 C       -6.630900648    16.076917954    -0.680379427
 C       -5.937885474    17.240871429    -0.357524893
 C       -7.168227977    14.217098860    -2.197605144
 C       -7.062171660    13.502671280    -3.330644547
 C       -7.817467120    12.286358369    -3.611704568
 C       -8.736654820    11.745977627    -2.708871134
 C       -9.438106763    10.580461604    -3.017461263
 C       -9.230506111     9.927104664    -4.235588546
 C       -8.306150678    10.464970036    -5.141685500
 C       -7.608582820    11.629171084    -4.831629475
Si      -10.142870554     8.383118650    -4.673722554
 C      -11.408479437     7.964234727    -3.363713767
 C      -11.011911789     8.636089135    -6.308775304
 C       -8.907930207     6.987616146    -4.811938309
 C       -4.984836317    20.278475663     0.511735957
 C       -3.936428341    20.410605950    -2.351157244
 C       -3.632468556    13.213091820    -1.825021962
 C       -5.728574076    12.508355960     0.305774269
 C       -0.623122169    -0.871036094    -1.531480648
 C       -0.608960618    -0.883779962     1.530741469
 H        1.256327454     2.719676198    -0.343031376
 H        0.332276522     4.964925778    -0.334055007
 H       -3.613042754     3.384330308     0.344224821
 H       -2.732026370     1.117443895     0.338681312
 H       -3.378898612     5.698029579     0.179200841
 H       -0.526939007     6.799358447    -0.310444220
 H       -4.237747711     7.528061038     0.202069268
 H       -5.166180876     9.771780247     0.211704131
 H       -1.180268822    11.381567590    -0.478822906
 H       -0.296301444     9.113940073    -0.483892548
 H       -3.390251601    14.576733824     1.130164805
 H       -1.658759174    12.081013097     1.862914912
 H       -0.051538145    12.332526341     3.482946776
 H        1.160938414    13.665937255     5.160452436
 H       -1.141009140    17.141925144     4.023269552
 H       -2.444094693    15.771962305     2.479524129
 H        0.980073924    18.023511063     6.778641415
 H       -0.646761102    17.602478863     6.208236283
 H        0.547415400    18.299466011     5.065376752
 H        5.283335755    16.652007424     1.766832501
 H        4.277160019    18.057292895     2.222257942
 H        4.329159418    17.494002336     0.524548793
 H        1.356914485    14.596742294     0.952823223
 H       -0.902678878    15.203493770     0.146539824
 H        0.023464817    19.375197398     0.722929601
 H        2.255122700    18.771523463     1.549546582
 H       -2.530733355    16.760538213    -0.379805844
 H       -1.812333577    19.772040714     0.043034491
 H       -4.091242803    17.532390659    -3.220261629
 H       -5.315644781    15.505970049    -3.762427813
 H       -7.346732936    15.667019441     0.029712031
 H       -6.144090079    17.696773526     0.615263503
 H       -7.860604662    13.907300048    -1.408694056
 H       -6.375253729    13.810662256    -4.124047353
 H       -8.916360802    12.234071569    -1.752655453
 H      -10.146500542    10.207517672    -2.272839462
 H       -8.101764477     9.996187167    -6.108494356
 H       -6.893804214    12.031338958    -5.547449769
 H        2.784104521    16.637599134     6.420699897
 H        2.622525435    15.064125758     5.622786938
 H        2.219875494    17.510704647     3.842981155
 H        3.852019864    17.283325199     4.465591913
 H        4.128073111    15.143451459     3.361025823
 H        2.368656534    14.899948811     3.188913320
 H        2.266930864    -1.029919895     0.039030961
 H        2.272561188     0.543184248     0.873392805
 H        2.276444276     0.475848391    -0.909634741
 H      -11.970312776     7.051271525    -3.631177521
 H      -12.144106899     8.778430838    -3.236700309
 H      -10.933832942     7.782913266    -2.383106183
 H      -11.731764931     9.472914428    -6.253641578
 H      -10.297520587     8.868438773    -7.118151272
 H      -11.573195167     7.733691341    -6.608973338
 H       -8.368479511     6.835060591    -3.859150831
 H       -9.402848923     6.035264638    -5.071050839
 H       -8.149894956     7.192655943    -5.588905389
 H       -5.005730684    19.714249188     1.461415810
 H       -4.490085264    21.244818996     0.715579410
 H       -6.029492526    20.495415147     0.225663271
 H       -3.340538546    19.917928184    -3.140235444
 H       -4.927684686    20.644802860    -2.779558258
 H       -3.440885892    21.368850292    -2.114636702
 H       -2.576010417    13.128338484    -2.133850344
 H       -4.246000323    12.691299920    -2.581724135
 H       -3.906617100    14.284335550    -1.854423497
 H       -5.915320488    12.045008938     1.290479263
 H       -6.113469982    13.543919644     0.346576072
 H       -6.323463953    11.960929412    -0.447915503
 H       -0.276078535    -0.363635810    -2.449902413
 H       -0.268343276    -1.915760148    -1.573152572
 H       -1.726974727    -0.890877496    -1.564052191
 H       -0.276815850    -0.365665389     2.448865727
 H       -1.711470782    -0.934453943     1.560955936
 H       -0.226746648    -1.918746836     1.575777305

