139   

Si        0.000000000     0.000000000     0.000000000
 C        1.869293846     0.000000000     0.000000000
 C       -0.652744554     1.726877863     0.000000000
 C        0.169966208     2.818094668    -0.295119901
 C       -0.342621726     4.115588135    -0.289828380
 C       -1.687635693     4.351281539     0.006140086
 C       -2.511799691     3.255871459     0.297954653
 C       -2.003176041     1.960011922     0.293542082
 C       -2.268481970     5.689809521     0.023863755
 C       -1.592126298     6.821569066    -0.236263167
 C       -2.175650615     8.159134543    -0.217822745
 C       -1.354647474     9.256960363    -0.509014807
 C       -1.867304525    10.551826882    -0.503473157
 C       -3.218242434    10.777447437    -0.212385988
 C       -4.040334631     9.683936788     0.078524916
 C       -3.521933207     8.389435183     0.078483600
Si       -3.903354824    12.490045038    -0.203430897
 C       -5.721535957    12.385505307    -0.408525112
 C       -6.628439567    12.839263634     0.466189849
 C       -8.076752988    12.740106708     0.272142797
 C       -8.928423917    13.253909514     1.262914944
 C      -10.304272777    13.185429498     1.128239828
 C      -10.877407503    12.623724583    -0.033047861
 C      -10.028575496    12.104763037    -1.024074342
 C       -8.648633443    12.147886655    -0.855546860
 N      -12.285345636    12.576560621    -0.123368879
 C      -12.991406270    13.853466597     0.126634352
 C      -12.850827672    11.800506147    -1.238280810
 C      -12.289385707    15.119305910    -0.390565319
 C      -12.105063600    15.120233436    -1.918621812
 N      -11.059020844    16.053535508    -2.375681935
 C      -11.247986010    17.416183285    -2.082391865
 C      -12.551694548    17.957470979    -2.057736969
 C      -12.749642428    19.298120246    -1.770081332
 C      -11.667376075    20.161280845    -1.547130300
 C      -10.375731561    19.630298238    -1.604341122
 C      -10.159723437    18.285511075    -1.874011080
 C       -9.698697598    15.517105014    -2.194654847
 C      -11.932520883    21.569299789    -1.246805928
 C      -10.977724550    22.480579158    -1.017286157
Si      -11.262697042    24.249758123    -0.638424437
 C      -10.534161750    24.612925852     1.018096566
 C      -10.238319295    23.574826885     1.907412081
 C       -9.687866520    23.850137856     3.158847254
 C       -9.427922666    25.166171866     3.550997808
 C       -9.729603952    26.204506412     2.659313064
 C      -10.277052842    25.933159973     1.407995382
 C       -8.853054952    25.500825560     4.850038446
 C       -8.519794847    24.602279952     5.792083844
 C       -7.944909865    24.934750249     7.091542892
 C       -7.681480913    26.249425631     7.485953106
 C       -7.131067127    26.521177909     8.738152066
 C       -6.839471594    25.482470342     9.628750226
 C       -7.103280090    24.164205093     9.236080689
 C       -7.645740692    23.895100980     7.981998435
Si       -6.110685677    25.838862591    11.287406554
 C       -6.638194275    27.535435202    11.869683615
 C       -6.693143164    24.566370557    12.527157488
 C       -4.249365598    25.771951947    11.137556229
 C      -10.407164767    25.268678288    -1.950278022
 C      -13.082875404    24.663167093    -0.593504892
 C       -3.434658978    13.310619727     1.406313628
 C       -3.219989457    13.466607223    -1.642348244
 C       -0.627732851    -0.867598652    -1.531206893
 C       -0.605225475    -0.887366111     1.530259003
 H        1.230233442     2.697309299    -0.533622888
 H        0.319852119     4.947775380    -0.521723278
 H       -3.562908502     3.417240711     0.530690157
 H       -2.694733725     1.145807113     0.527761122
 H       -3.333729512     5.722267851     0.272089886
 H       -0.527214878     6.789892545    -0.484415240
 H       -0.303228007     9.098963582    -0.741588032
 H       -1.179501920    11.369076135    -0.736786079
 H       -5.103245935     9.802633764     0.314502583
 H       -4.180951206     7.554583589     0.310844984
 H       -6.029714729    11.901790787    -1.349693509
 H       -6.350983552    13.326235946     1.410502334
 H       -8.501743336    13.704578013     2.159981442
 H      -10.949898921    13.556881112     1.920736204
 H      -10.434391624    11.661972611    -1.928090221
 H       -8.009130285    11.722062392    -1.630698902
 H      -13.936097686    11.676413677    -1.075081765
 H      -12.414106835    10.784972435    -1.234501218
 H      -12.696422593    12.248588688    -2.232188550
 H       -9.684018127    14.434340669    -2.412544593
 H       -9.299960631    15.655120081    -1.175925070
 H       -9.019250994    16.001144769    -2.918859704
 H      -13.410915948    17.324980472    -2.259629217
 H      -13.766970964    19.688873030    -1.733345790
 H       -9.514261382    20.279272456    -1.436665706
 H       -9.139419848    17.916191954    -1.909806566
 H      -13.002950542    21.812984204    -1.225274596
 H       -9.910773477    22.205853578    -1.050700790
 H      -10.423616595    22.524899743     1.656365846
 H       -9.462920884    23.024644845     3.831918204
 H       -9.534786626    27.236239697     2.945730670
 H      -10.490550736    26.783009222     0.754189016
 H       -8.701788440    26.570561390     5.021836484
 H       -8.671372024    23.532511473     5.619751417
 H       -7.904177689    27.076248863     6.813804932
 H       -6.945724635    27.569451880     8.988507336
 H       -6.896565474    23.312116254     9.889504612
 H       -7.841289938    22.863706185     7.694241717
 H      -14.018427537    13.792027593    -0.294380668
 H      -13.116803661    13.932968097     1.234296978
 H      -12.865297726    16.013474175    -0.080883396
 H      -11.302371248    15.234485970     0.102350863
 H      -11.832409354    14.102858249    -2.280906917
 H      -13.059326893    15.376240296    -2.430172988
 H        2.266963310    -1.028470710     0.067866765
 H        2.271486291     0.567406239     0.858550804
 H        2.277585030     0.450566777    -0.921797609
 H       -6.270461562    27.738996724    12.891152848
 H       -7.739354060    27.626694144    11.889003471
 H       -6.248164587    28.333273708    11.213799777
 H       -7.796705594    24.532829000    12.576057663
 H       -6.339663780    23.552336023    12.271403255
 H       -6.322938856    24.798853811    13.541543991
 H       -3.878397911    26.511141467    10.404831423
 H       -3.759520093    25.984190485    12.104059133
 H       -3.908508132    24.776346254    10.801035173
 H       -9.317137168    25.086774140    -1.953196563
 H      -10.787028850    25.019890217    -2.957862619
 H      -10.563942648    26.349791714    -1.792513865
 H      -13.611075511    24.067497691     0.173287835
 H      -13.247259580    25.728430451    -0.351833587
 H      -13.565512564    24.463413522    -1.566686658
 H       -3.831241154    12.751088238     2.273377467
 H       -2.337283393    13.362917361     1.524907515
 H       -3.825507791    14.342040088     1.463258207
 H       -3.413616412    12.956386607    -2.603211240
 H       -3.683053549    14.468386633    -1.699430688
 H       -2.128682145    13.609341444    -1.555520275
 H       -0.282773775    -0.359407927    -2.449901406
 H       -0.274749549    -1.912876855    -1.575361575
 H       -1.731854141    -0.885747080    -1.560398331
 H       -0.284733359    -0.361918536     2.448351209
 H       -1.706921334    -0.954500622     1.555180072
 H       -0.208646606    -1.916809925     1.579893180

