139   

Si        0.000000000     0.000000000     0.000000000
 C        1.869240746     0.000000000     0.000000000
 C       -0.649870814     1.728024108     0.000000000
 C        0.124923810     2.792335182    -0.472097657
 C       -0.377507535     4.093522518    -0.466840880
 C       -1.665918753     4.359549209     0.004232482
 C       -2.442710534     3.291347793     0.472452913
 C       -1.943401447     1.991656660     0.469303780
 C       -2.235258620     5.702850937     0.029735406
 C       -1.602095246     6.812684966    -0.386633691
 C       -2.177690966     8.153629510    -0.358299725
 C       -1.408581329     9.228804158    -0.823391971
 C       -1.917034435    10.525381746    -0.815061266
 C       -3.212448364    10.775307347    -0.346011088
 C       -3.982592424     9.704247178     0.118811674
 C       -3.467938075     8.408414884     0.114904988
Si       -3.893107531    12.489831276    -0.331751598
 C       -5.720829467    12.376629664    -0.246871814
 C       -6.487878883    12.881507578     0.727816869
 C       -7.948493457    12.771161078     0.761848295
 C       -8.644270352    13.342483558     1.838679690
 C      -10.024874424    13.265423437     1.917158426
 C      -10.758794020    12.636907711     0.890527845
 C      -10.067297834    12.060907150    -0.185591309
 C       -8.678235512    12.113576126    -0.231205909
 N      -12.167954791    12.591283479     1.030688257
 C      -12.842554930    13.903148993     1.085412178
 C      -12.868523438    11.600579351     0.199803966
 C      -13.188579914    14.546341170    -0.268821391
 C      -11.968141637    15.019311385    -1.080170342
 N      -11.347203441    16.273651098    -0.622387269
 C      -12.189896446    17.372700370    -0.402991034
 C      -13.277033092    17.596317699    -1.277577406
 C      -14.122987899    18.674567062    -1.081617810
 C      -13.898633928    19.595091343    -0.046643004
 C      -12.805269660    19.388660950     0.798419694
 C      -11.955547809    18.303259982     0.627522524
 C      -10.214587253    16.092955630     0.294694686
 C      -14.825838178    20.715601757     0.112911993
 C      -14.719360013    21.657901454     1.059452265
Si      -15.875210026    23.063388954     1.266157350
 C      -17.196938561    22.981740401    -0.018981359
 C      -16.848826872    23.094198139    -1.371037143
 C      -17.826983121    23.035905260    -2.361738341
 C      -19.173115505    22.858877675    -2.026906819
 C      -19.518372833    22.743601682    -0.674634451
 C      -18.542759293    22.803712116     0.318623562
 C      -20.230842368    22.791950458    -3.029916647
 C      -20.035196039    22.888409367    -4.355958514
 C      -21.093437674    22.821398503    -5.358538239
 C      -22.439101643    22.646668333    -5.024065743
 C      -23.418350668    22.588186200    -6.015210114
 C      -23.073745178    22.712645454    -7.365194764
 C      -21.725878110    22.889068904    -7.703058949
 C      -20.749164922    22.939276850    -6.711651684
Si      -24.364769852    22.636218308    -8.682935193
 C      -26.020311933    23.167462928    -7.995813776
 C      -23.901385571    23.774506873   -10.091774010
 C      -24.472074322    20.875521589    -9.299181767
 C      -16.606957338    22.977835547     2.983582198
 C      -14.933754373    24.665258570     1.066777390
 C       -3.186347217    13.402115884     1.135187128
 C       -3.444260667    13.375603691    -1.913846117
 C       -0.629372256    -0.862247254    -1.533634790
 C       -0.601725751    -0.897785610     1.525745863
 H        1.139670381     2.646767518    -0.852604662
 H        0.246981562     4.904847330    -0.836638750
 H       -3.449242190     3.476514439     0.843516045
 H       -2.595998990     1.199645081     0.847127615
 H       -3.254082123     5.758822747     0.425440305
 H       -0.583898056     6.759013643    -0.782472089
 H       -0.401283252     9.051648427    -1.195553193
 H       -1.271024364    11.324354011    -1.188816057
 H       -5.000680555     9.842207823     0.498376027
 H       -4.085842563     7.591740179     0.484457348
 H       -6.165846398    11.839267750    -1.100548148
 H       -6.074344144    13.422995508     1.588786127
 H       -8.090488946    13.841516785     2.634665208
 H      -10.549789543    13.675008446     2.778105590
 H      -10.605904824    11.565661097    -0.988004113
 H       -8.159550232    11.646064537    -1.069767825
 H      -13.922473718    11.544524099     0.524563849
 H      -12.422339613    10.604549837     0.372452723
 H      -12.847189363    11.812588691    -0.880558357
 H       -9.596443455    15.236610673    -0.033561643
 H      -10.512484389    15.914121322     1.340408337
 H       -9.566209623    16.987334272     0.252171624
 H      -13.451811704    16.921634505    -2.110476283
 H      -14.969419912    18.817772040    -1.755032632
 H      -12.608532808    20.089635062     1.610734971
 H      -11.121555286    18.177426903     1.309938109
 H      -15.637712717    20.711733732    -0.629659413
 H      -13.900261412    21.639743953     1.794192007
 H      -15.811949274    23.232326131    -1.694221788
 H      -17.532205520    23.129051493    -3.405494389
 H      -20.560199043    22.604887312    -0.392135129
 H      -18.872033139    22.706273967     1.356630525
 H      -21.237446861    22.652781207    -2.624492606
 H      -19.028958261    23.028154352    -4.762088361
 H      -22.734811140    22.552965417    -3.980587425
 H      -24.453343478    22.447825915    -5.691222972
 H      -21.397124254    22.992978916    -8.740833405
 H      -19.706857225    23.075315317    -6.994491706
 H      -13.783918297    13.748739012     1.666564374
 H      -12.224373325    14.606877236     1.686061954
 H      -13.778974521    13.841955983    -0.883946271
 H      -13.868504216    15.405280807    -0.083767402
 H      -11.191382491    14.220850535    -1.102146410
 H      -12.269838641    15.171721309    -2.144738477
 H        2.267271575    -1.027759563     0.074967697
 H        2.270280402     0.573847947     0.855019667
 H        2.278941467     0.445153330    -0.923628766
 H      -26.787486001    23.207248758    -8.789530220
 H      -25.961013310    24.173119936    -7.541481316
 H      -26.384614379    22.470970448    -7.220515244
 H      -23.746851669    24.809142560    -9.735212137
 H      -22.970857383    23.451769822   -10.590449678
 H      -24.694703839    23.803199007   -10.859717564
 H      -24.741887594    20.179887563    -8.484246133
 H      -25.233168364    20.772328495   -10.092387753
 H      -23.506886829    20.535132270    -9.715264406
 H      -17.134279391    22.020913342     3.149371793
 H      -15.822485546    23.058348635     3.757187324
 H      -17.328198982    23.795916890     3.156714206
 H      -14.448421442    24.727895159     0.076095365
 H      -15.606206192    25.536747987     1.162367113
 H      -14.142965881    24.767083339     1.830575788
 H       -3.439454590    12.895323951     2.084506963
 H       -2.084217757    13.458925554     1.078802076
 H       -3.570712094    14.435924682     1.192037396
 H       -3.783786129    12.811696267    -2.801608666
 H       -3.913145711    14.375552960    -1.957413391
 H       -2.353097251    13.515890660    -2.006316231
 H       -0.286003394    -0.351463683    -2.451357863
 H       -0.277012878    -1.907568647    -1.581308862
 H       -1.733672842    -0.879685484    -1.561214525
 H       -0.303052522    -0.364159653     2.446405916
 H       -1.701473703    -0.992896153     1.538694762
 H       -0.181089484    -1.917496515     1.581538286

