139   

Si        0.000000000     0.000000000     0.000000000
 C        1.867681330     0.000000000     0.000000000
 C       -0.594815566     1.748555482     0.000000000
 C       -0.329661701     2.568182543     1.103591521
 C       -0.768642889     3.890629449     1.125670057
 C       -1.500172165     4.420094286     0.057732940
 C       -1.766460946     3.597590098    -1.043525193
 C       -1.313469931     2.280173570    -1.076701564
 C       -1.978780551     5.799113195     0.040363738
 C       -1.768969339     6.683077906     1.030114383
 C       -2.236591416     8.064610532     1.035688996
 C       -1.934259676     8.861573017     2.147286151
 C       -2.354976496    10.187054550     2.206752943
 C       -3.112091226    10.740379397     1.167080139
 C       -3.429600941     9.941438294     0.063635247
 C       -2.998420848     8.616193182     0.001800685
Si       -3.661849492    12.496618554     1.259939183
 C       -5.460511971    12.693982185     0.966775689
 C       -5.962455088    13.429710877    -0.033648450
 C       -7.386752670    13.621967224    -0.314341093
 C       -7.740772359    14.428305872    -1.407856928
 C       -9.068582832    14.652403389    -1.730085010
 C      -10.091427760    14.124166003    -0.917748762
 C       -9.743554470    13.325631554     0.180929147
 C       -8.405190741    13.062316404     0.459666078
 N      -11.431605428    14.393387679    -1.308101981
 C      -11.788091471    15.827792687    -1.344806367
 C      -12.465686894    13.566736639    -0.663681376
 C      -12.041469801    16.451923613     0.040852827
 C      -11.541777549    17.904418944     0.153964571
 N      -10.097320279    18.067864889     0.435539386
 C       -9.580191232    17.204459991     1.429162158
 C      -10.305452176    17.042861747     2.628454513
 C       -9.829955383    16.205425965     3.624337660
 C       -8.596906753    15.552899464     3.491862193
 C       -7.862712592    15.746784990     2.318774829
 C       -8.336245084    16.565666219     1.301989708
 C       -9.280613125    18.220131532    -0.780588535
 C       -8.135989743    14.677570769     4.570824854
 C       -6.974160626    14.014000761     4.533097814
Si       -6.312570837    12.899781584     5.827657686
 C       -6.155543412    11.298084186     4.911253079
 C       -7.069291006    11.067442501     3.871693518
 C       -7.018469744     9.890269713     3.135576151
 C       -6.042028726     8.920157148     3.402639025
 C       -5.129392302     9.153373685     4.433855115
 C       -5.187379678    10.330091501     5.185315970
 C       -6.054110073     7.712474835     2.587405497
 C       -5.214723862     6.669772299     2.699265759
 C       -5.286563463     5.487712831     1.843721634
 C       -6.247686841     5.358975802     0.835488253
 C       -6.294463379     4.221344465     0.033565897
 C       -5.398706571     3.166418614     0.243575132
 C       -4.443254586     3.286542586     1.258677587
 C       -4.385502647     4.436137663     2.045691571
Si       -5.492280557     1.676108542    -0.839747142
 C       -4.920593546     2.138849964    -2.558741120
 C       -4.406570499     0.316677653    -0.162149430
 C       -7.261841808     1.073659162    -0.903728991
 C       -4.670804458    13.532865557     6.444582435
 C       -7.489168705    12.682938733     7.257990162
 C       -3.276516363    13.200146023     2.947238119
 C       -2.681999388    13.446239508    -0.022872956
 C       -0.627853986    -0.903978459    -1.511218881
 C       -0.650184445    -0.850234480     1.532959131
 H        0.228120542     2.209127287     1.972625043
 H       -0.539442738     4.510751716     1.990390229
 H       -2.330255517     3.994054902    -1.886681226
 H       -1.542131530     1.689482103    -1.968013329
 H       -2.546320924     6.080042549    -0.851113129
 H       -1.205451878     6.392003909     1.922010385
 H       -1.357717548     8.446307355     2.970981748
 H       -2.080764825    10.759947803     3.096967098
 H       -4.029952553    10.317669268    -0.769897673
 H       -3.266468980     8.008714599    -0.860641450
 H       -6.109129302    12.155112424     1.676370181
 H       -5.320583384    13.964340441    -0.749201730
 H       -6.960722154    14.866705659    -2.030467789
 H       -9.328014792    15.227369366    -2.615735368
 H      -10.509535808    12.913285468     0.831058055
 H       -8.155197536    12.426005715     1.310884760
 H      -13.432556141    13.755022010    -1.161601865
 H      -12.589579735    13.749745120     0.415148523
 H      -12.222701995    12.499931284    -0.817006063
 H       -9.757425139    18.946765841    -1.458600664
 H       -9.113571956    17.278701443    -1.330266214
 H       -8.298016143    18.642585342    -0.499171629
 H      -11.243283541    17.572218388     2.770411433
 H      -10.418397846    16.070070233     4.531806382
 H       -6.902679886    15.241740221     2.181040529
 H       -7.743204083    16.669666631     0.397547243
 H       -8.831375179    14.619459879     5.416572513
 H       -6.299277562    14.104574152     3.663070262
 H       -7.854033477    11.788322532     3.612599816
 H       -7.739848433     9.725134534     2.336592965
 H       -4.360749152     8.415976828     4.654973825
 H       -4.451226525    10.459575264     5.981208043
 H       -6.836999006     7.702957532     1.819644033
 H       -4.419412089     6.660410291     3.447093655
 H       -6.964738606     6.158823700     0.658507071
 H       -7.058268597     4.188565713    -0.747941767
 H       -3.710570917     2.499621654     1.461989641
 H       -3.626063153     4.514394367     2.821207716
 H      -10.983775526    16.378742263    -1.879006889
 H      -12.696479701    15.922823768    -1.981855419
 H      -13.120879279    16.418179853     0.275474997
 H      -11.558770508    15.828727481     0.823205182
 H      -11.799033142    18.473068468    -0.765218122
 H      -12.084945505    18.415518650     0.985630111
 H        2.270624137    -1.027944933    -0.008410150
 H        2.273482023     0.510539743     0.891327248
 H        2.267776986     0.522080827    -0.888235727
 H       -4.977799409     1.277113023    -3.245760748
 H       -3.873538653     2.491419313    -2.549846670
 H       -5.539583921     2.948231918    -2.983999492
 H       -3.360510759     0.663532774    -0.076459593
 H       -4.735943418    -0.001806460     0.842532545
 H       -4.412671108    -0.573888166    -0.813362079
 H       -7.937033516     1.833894402    -1.333103809
 H       -7.353336853     0.161434423    -1.518344341
 H       -7.636921065     0.833124369     0.107564968
 H       -3.945930164    13.674569073     5.622550743
 H       -4.788817584    14.509655736     6.948610024
 H       -4.218436766    12.837487663     7.173144793
 H       -8.470729432    12.303533135     6.920313580
 H       -7.095967793    11.960828727     7.995872424
 H       -7.662701218    13.637161884     7.786403884
 H       -3.614806169    12.508559476     3.740890492
 H       -2.192535348    13.358674866     3.080102968
 H       -3.776395761    14.172999277     3.103330917
 H       -2.886657917    13.077182448    -1.043205118
 H       -2.916163105    14.524468172     0.002455879
 H       -1.596385945    13.337587202     0.150980190
 H       -0.234077761    -0.460053334    -2.442657979
 H       -0.319610858    -1.964534839    -1.496830359
 H       -1.731421909    -0.881104846    -1.567450970
 H       -0.298931707    -0.352875478     2.454006714
 H       -1.755423901    -0.845504682     1.555387635
 H       -0.321087564    -1.903139720     1.577460909

