139   

Si        0.000000000     0.000000000     0.000000000
 C        1.869153823     0.000000000     0.000000000
 C       -0.656247047     1.725344889     0.000000000
 C        0.189423975     2.831189889     0.126301389
 C       -0.329714861     4.126036216     0.123644779
 C       -1.703897147     4.344427878    -0.002474030
 C       -2.550627554     3.234457658    -0.127104283
 C       -2.035474690     1.941203625    -0.125494607
 C       -2.291859908     5.680073700    -0.010338986
 C       -1.594106292     6.823326889     0.100238764
 C       -2.181223703     8.159362385     0.092470838
 C       -3.556058596     8.377728773    -0.033712652
 C       -4.074810723     9.672196167    -0.036345552
 C       -3.225459643    10.777276807     0.077860880
 C       -1.847082297    10.562711602     0.203082497
 C       -1.333412091     9.268440148     0.213390784
Si       -3.897051585    12.496255619     0.075921933
 C       -2.604657946    13.611408059    -0.587604795
 C       -2.055260468    14.642732615     0.067374846
 C       -1.022498256    15.515091207    -0.494414093
 C       -0.521465675    16.565911428     0.288350018
 C        0.455686895    17.418844674    -0.196868756
 C        1.006620078    17.217353823    -1.481548897
 C        0.505567311    16.162768516    -2.267200010
 C       -0.506927924    15.344865209    -1.781905307
 N        1.998029397    18.095998835    -1.954188512
 C        2.983515594    18.574899367    -0.968459139
 C        2.598714452    17.787446565    -3.261842160
 C        3.737119501    17.439928078    -0.244864144
 C        5.134751626    17.884623590     0.222958423
 N        6.237326101    17.502986663    -0.688366764
 C        6.101855027    18.014698658    -2.006378166
 C        6.087545841    19.415630528    -2.162769682
 C        5.958049742    19.974008883    -3.423532880
 C        5.874202707    19.164814063    -4.567462817
 C        5.915292200    17.778022150    -4.408622764
 C        6.036516635    17.202741472    -3.147904701
 C        6.577750043    16.072714838    -0.589121721
 C        5.738072074    19.806606756    -5.877482976
 C        5.649523786    19.137034824    -7.033786351
Si        5.478470950    19.898658880    -8.692411016
 C        6.920170471    19.383187023    -9.720454575
 C        8.110589567    18.963963267    -9.114113045
 C        9.198508594    18.574975022    -9.891858045
 C        9.126830655    18.603364801   -11.290756441
 C        7.938128967    19.027352266   -11.892086321
 C        6.845696188    19.414250909   -11.116868398
 C       10.293134543    18.186231808   -12.062544983
 C       10.353403838    18.163591305   -13.404867957
 C       11.519019736    17.746703196   -14.177614740
 C       12.708539340    17.322421552   -13.578804873
 C       13.798359246    16.932596307   -14.356445641
 C       13.719793215    16.950352164   -15.753190351
 C       12.528598755    17.374188781   -16.355424252
 C       11.444071855    17.770047300   -15.576443722
Si       15.162393722    16.434329991   -16.783735477
 C       16.168558575    15.145453206   -15.877384078
 C       14.567760818    15.709353249   -18.401075360
 C       16.215638539    17.941599939   -17.115672949
 C        3.888346346    19.272556320    -9.446999095
 C        5.449251857    21.762451871    -8.597433143
 C       -5.390186472    12.612714558    -1.041258842
 C       -4.373939252    12.948064472     1.823688397
 C       -0.611283880    -0.879750726    -1.531844418
 C       -0.622138026    -0.872764281     1.530876992
 H        1.272763181     2.724106160     0.228660959
 H        0.350910523     4.969921150     0.222222573
 H       -3.624437479     3.382522576    -0.226513912
 H       -2.744942416     1.115032940    -0.226033357
 H       -3.380539110     5.699795394    -0.116064962
 H       -0.505327645     6.803296195     0.206037292
 H       -4.236211103     7.533588269    -0.130279166
 H       -5.158183234     9.780444582    -0.135999964
 H       -1.137180311    11.391942260     0.293257961
 H       -0.259810583     9.120054634     0.313682454
 H       -2.297555437    13.363357580    -1.616675021
 H       -2.341801357    14.915920613     1.091527188
 H       -0.915606391    16.724785663     1.292424853
 H        0.796519675    18.246698309     0.418205956
 H        0.897818717    15.976108858    -3.262040416
 H       -0.888425917    14.544354613    -2.418078032
 H        3.322280441    18.577528705    -3.537799320
 H        1.811673330    17.792687782    -4.036763027
 H        3.130940145    16.823085126    -3.288764082
 H        6.857044442    15.848202137     0.455591753
 H        7.466664287    15.862791789    -1.209756950
 H        5.766431233    15.389693069    -0.885450925
 H        6.189953030    20.054880110    -1.288257472
 H        5.936319834    21.059283100    -3.527579948
 H        5.857729740    17.127050527    -5.282704005
 H        6.061245316    16.120307567    -3.061320079
 H        5.716734840    20.902951216    -5.822291667
 H        5.673707513    18.035078710    -7.057688742
 H        8.224685411    18.924343615    -8.025701229
 H       10.114713831    18.247423974    -9.403516706
 H        7.856247536    19.058639864   -12.977070998
 H        5.942591972    19.734248762   -11.643708710
 H       11.153737017    17.879488357   -11.460654302
 H        9.492483870    18.470411473   -14.006327210
 H       12.793980755    17.294143060   -12.493906543
 H       14.702036709    16.612551510   -13.830193208
 H       12.408358539    17.408405471   -17.441776001
 H       10.527567674    18.098107630   -16.063510453
 H        3.699583774    19.247471106    -1.495519271
 H        2.455264462    19.220805284    -0.231376336
 H        3.138842123    17.084821100     0.614688797
 H        3.820834573    16.560585827    -0.912418333
 H        5.172656259    18.988393769     0.360926560
 H        5.358760048    17.451447575     1.223952180
 H        2.266871616    -1.030087952    -0.036279931
 H        2.275961267     0.478199054     0.908673775
 H        2.272994341     0.540505813    -0.874763663
 H       16.997354788    14.772351861   -16.505077774
 H       15.546257722    14.275813170   -15.598543795
 H       16.612739041    15.548900190   -14.950646309
 H       13.875874888    14.864740081   -18.230246506
 H       14.036359324    16.457146154   -19.015210827
 H       15.412586899    15.329169791   -19.002636905
 H       16.584043787    18.390147214   -16.175486689
 H       17.095479743    17.690150918   -17.733520552
 H       15.643834588    18.721770352   -17.649697294
 H        3.913027530    18.176716963    -9.587603410
 H        3.021882294    19.504546922    -8.801127245
 H        3.698607382    19.730197431   -10.433684125
 H        6.376323207    22.157613506    -8.143072464
 H        5.360329048    22.213162415    -9.602550620
 H        4.597327613    22.123372537    -7.994160611
 H       -5.157401401    12.261044380    -2.062617816
 H       -6.231476158    12.007035791    -0.662390457
 H       -5.743259785    13.656967588    -1.123778064
 H       -3.505817704    12.891547159     2.505336508
 H       -4.779558081    13.973928532     1.878373601
 H       -5.145410674    12.262785584     2.218450337
 H       -0.276038649    -0.362844177    -2.449490000
 H       -0.234152694    -1.916585328    -1.577147454
 H       -1.714112729    -0.924615173    -1.562892965
 H       -0.274396073    -0.366027522     2.449464104
 H       -1.725925906    -0.893199052     1.564415031
 H       -0.267020031    -1.917444433     1.571398248

