139   

Si        0.000000000     0.000000000     0.000000000
 C        1.869250961     0.000000000     0.000000000
 C       -0.656518274     1.724699749     0.000000000
 C        0.178593669     2.826630476    -0.205172813
 C       -0.341104633     4.121235094    -0.200773810
 C       -1.702591026     4.343439140     0.019855260
 C       -2.538777257     3.237441349     0.224946553
 C       -2.025002251     1.944032814     0.209433103
 C       -2.291246159     5.677367260     0.033576799
 C       -1.607529336     6.817751731    -0.159821077
 C       -2.203148084     8.148997348    -0.144719116
 C       -1.378037103     9.261097116    -0.360686315
 C       -1.906389518    10.548265141    -0.354301080
 C       -3.273506212    10.753328285    -0.120978481
 C       -4.095223182     9.647099266     0.105908880
 C       -3.561871466     8.358330456     0.100069891
Si       -3.947205003    12.467484085    -0.117893161
 C       -3.651653879    13.248614202    -1.750984954
 C       -3.040864868    12.673503296    -2.795726623
 C       -2.827100780    13.339557840    -4.084483522
 C       -2.176777175    12.651666381    -5.116433334
 C       -1.956966512    13.252389565    -6.352058928
 C       -2.429143054    14.548972896    -6.596289453
 C       -3.090971776    15.241901271    -5.565823206
 C       -3.270882998    14.645464354    -4.327556726
 N       -2.261344192    15.259035392    -7.821302678
 C       -1.167666151    14.827219073    -8.704588171
 C       -3.533068087    15.499256507    -8.529553304
 C       -1.494116787    13.672382050    -9.666868176
 C       -0.212900609    13.194120226   -10.378382726
 N       -0.236465726    11.764192301   -10.757599589
 C       -0.382172241    10.903744372    -9.630168970
 C        0.659935091    10.899941632    -8.683329992
 C        0.579714805    10.086079067    -7.564914892
 C       -0.517132243     9.233050757    -7.371701993
 C       -1.538759729     9.229738680    -8.324197680
 C       -1.478392264    10.051899832    -9.444383052
 C       -1.146433272    11.497479533   -11.885092200
 C       -0.558817853     8.390424194    -6.173767675
 C       -1.560990684     7.545732316    -5.901285117
Si       -1.691152184     6.459347039    -4.430678012
 C       -3.247036967     7.006477061    -3.602987440
 C       -3.645055591     8.341503498    -3.744384718
 C       -4.811758858     8.798889422    -3.137650063
 C       -5.610332087     7.931396062    -2.386548254
 C       -5.210283393     6.596364778    -2.246600267
 C       -4.037508248     6.137769752    -2.844243071
 C       -6.838749670     8.379023611    -1.738061805
 C       -7.311195233     9.635366355    -1.808768779
 C       -8.534766075    10.105720793    -1.170072658
 C       -9.354102428     9.273741304    -0.403742693
 C      -10.516409637     9.768029787     0.188954118
 C      -10.884292245    11.106618110     0.026341799
 C      -10.065612904    11.942873243    -0.745385267
 C       -8.908239658    11.446653654    -1.337661012
Si      -12.415143787    11.792161876     0.796742537
 C      -13.342231000    10.465233752     1.730950668
 C      -11.930461063    13.158193914     1.976866602
 C      -13.511200401    12.472434747    -0.555858321
 C       -1.812471992     4.679404234    -4.974856564
 C       -0.243394303     6.665058180    -3.274462217
 C       -5.780727636    12.464637851     0.230976391
 C       -3.064971149    13.465493924     1.193073190
 C       -0.623621483    -0.868375600    -1.532991661
 C       -0.608464742    -0.885349229     1.529740713
 H        1.252992714     2.716138742    -0.374673165
 H        0.331606566     4.961654584    -0.361921551
 H       -3.602700949     3.389282726     0.397713151
 H       -2.725943156     1.120362707     0.370599852
 H       -3.371607393     5.701021074     0.206490599
 H       -0.527461443     6.801108406    -0.330643221
 H       -0.315323426     9.118237284    -0.543298298
 H       -1.217429140    11.378980602    -0.534532669
 H       -5.170832696     9.744584777     0.286365042
 H       -4.224283349     7.511550144     0.273838460
 H       -4.029254118    14.281618510    -1.813563305
 H       -2.655330712    11.643954523    -2.768479605
 H       -1.828900704    11.629711102    -4.954729942
 H       -1.432377347    12.696598143    -7.126354875
 H       -3.439935046    16.257400863    -5.740828839
 H       -3.770670754    15.206492373    -3.537845786
 H       -3.343700814    16.118948830    -9.421319905
 H       -4.215327707    16.066410139    -7.872759485
 H       -4.045754440    14.575052464    -8.840071608
 H       -0.805548828    12.082421253   -12.757205309
 H       -2.200248465    11.747605061   -11.688950848
 H       -1.078531272    10.431862983   -12.166337824
 H        1.529177027    11.535862982    -8.837342954
 H        1.386255645    10.104506621    -6.832009332
 H       -2.406141898     8.580660068    -8.193298665
 H       -2.295915466    10.034007709   -10.158973424
 H        0.311487928     8.516823611    -5.518421437
 H       -2.420150726     7.444612338    -6.586376723
 H       -3.061389603     9.067971549    -4.321362921
 H       -5.093554493     9.845285334    -3.253096857
 H       -5.819801232     5.906228195    -1.667779731
 H       -3.765978330     5.089073175    -2.695980967
 H       -7.370645887     7.609473195    -1.173278742
 H       -6.774514874    10.398046246    -2.384704248
 H       -9.090306246     8.227311031    -0.261603889
 H      -11.117264656     9.069418449     0.777420219
 H      -10.304949017    12.997406991    -0.908721576
 H       -8.288998263    12.109750452    -1.940967006
 H       -0.865609173    15.727747287    -9.291261506
 H       -0.290516002    14.566481407    -8.067778666
 H       -1.961697348    12.837231473    -9.108634276
 H       -2.248955982    13.985592465   -10.408150172
 H       -0.030058180    13.794696603   -11.295382868
 H        0.678572399    13.351218118    -9.728391726
 H        2.267403839    -1.029125979     0.053281337
 H        2.271243583     0.555186951     0.866592863
 H        2.276850758     0.463884639    -0.915507836
 H      -14.284152934    10.859594365     2.152694994
 H      -12.744739027    10.068895288     2.571165524
 H      -13.604990517     9.616484281     1.074606740
 H      -11.267876607    12.779156477     2.776110440
 H      -11.390465442    13.969827592     1.458145923
 H      -12.816777860    13.603503643     2.462084044
 H      -13.773155992    11.688328831    -1.289554084
 H      -14.454356872    12.874063459    -0.145569153
 H      -13.014040582    13.287731777    -1.110429722
 H       -2.705330694     4.503543974    -5.600794939
 H       -0.928238446     4.378774952    -5.565186501
 H       -1.875780757     4.000401141    -4.104525480
 H       -0.235848830     7.670702524    -2.815282169
 H       -0.293241617     5.922332683    -2.455734735
 H        0.717581041     6.519854254    -3.797588517
 H       -6.336588596    11.846494436    -0.499120848
 H       -5.996299578    12.056013491     1.235166079
 H       -6.204390202    13.483242984     0.191536694
 H       -1.981307916    13.532029302     0.989733338
 H       -3.456032383    14.495992244     1.250285697
 H       -3.186449978    13.005970869     2.190566748
 H       -0.276725590    -0.359653266    -2.450653836
 H       -0.268606795    -1.913016190    -1.576053998
 H       -1.727391998    -0.888631445    -1.565486464
 H       -0.276115278    -0.367792432     2.448222534
 H       -1.710888967    -0.936647528     1.560327695
 H       -0.225668203    -1.920193164     1.574040441

