139   

Si        0.000000000     0.000000000     0.000000000
 C        1.869474427     0.000000000     0.000000000
 C       -0.642455129     1.731653730     0.000000000
 C        0.200584981     2.822291000    -0.233115151
 C       -0.302475166     4.123259815    -0.229305113
 C       -1.660146969     4.363626554    -0.000739081
 C       -2.504063374     3.269130521     0.230901624
 C       -2.003413889     1.969964230     0.233779480
 C       -2.232360569     5.706102258     0.012760022
 C       -1.533009044     6.835804630    -0.188634863
 C       -2.099644699     8.180330830    -0.176277570
 C       -1.245869576     9.268372941    -0.402714157
 C       -1.735880067    10.571562575    -0.401403451
 C       -3.102207345    10.814740277    -0.212683939
 C       -3.958156813     9.730053744     0.004108051
 C       -3.459095065     8.427810181     0.031862539
Si       -3.741407751    12.547638190    -0.212771863
 C       -5.560178047    12.488746726    -0.426575805
 C       -6.503853351    12.950350990     0.404517827
 C       -7.941653804    12.850594599     0.133668960
 C       -8.856221497    13.364227512     1.065966494
 C      -10.222531250    13.288690193     0.845447734
 C      -10.725959773    12.658896218    -0.310700102
 C       -9.813424323    12.144563012    -1.246011750
 C       -8.445164747    12.259083896    -1.027215895
 N      -12.127865506    12.601192646    -0.501604963
 C      -12.922015925    12.076200048     0.622162025
 C      -12.591382798    12.103269518    -1.807258414
 C      -12.705771110    10.575047589     0.882213969
 C      -13.547346311    10.051347879     2.059598213
 N      -13.367155777    10.751661585     3.351454755
 C      -12.044650283    11.169430084     3.627462464
 C      -11.010924840    10.217816125     3.497954963
 C       -9.700315302    10.577330206     3.756759776
 C       -9.380648338    11.870508326     4.200695180
 C      -10.409716554    12.799603777     4.356875895
 C      -11.730077341    12.460247902     4.080488407
 C      -14.437499869    11.721118523     3.637750026
 C       -7.975890422    12.186425730     4.456160979
 C       -7.525694500    13.373636662     4.881086209
Si       -5.767208919    13.778503613     5.203849285
 C       -4.677627541    12.327541014     4.866236136
 C       -3.621484525    11.996169578     5.719552534
 C       -2.808704675    10.895383114     5.447466940
 C       -3.026950593    10.106723638     4.314499188
 C       -4.079967350    10.445349987     3.455649002
 C       -4.891749315    11.543102915     3.723898376
 C       -2.203789981     8.947195778     3.989237370
 C       -1.167987810     8.522283866     4.731777459
 C       -0.337234605     7.365445374     4.418423056
 C       -0.545976432     6.570510966     3.288016487
 C        0.274798908     5.474438659     3.030631036
 C        1.329019159     5.154475404     3.894254759
 C        1.541614148     5.950168096     5.025022543
 C        0.715738179     7.041809039     5.283678158
Si        2.393564137     3.696081599     3.520040259
 C        3.145450135     3.921145917     1.822712686
 C        3.760841281     3.514932414     4.781682428
 C        1.309364691     2.175126942     3.549519026
 C       -5.269897535    15.169481407     4.057639276
 C       -5.609979512    14.326388539     6.982247764
 C       -3.184717658    13.412243002     1.339157536
 C       -3.052744940    13.456317633    -1.697426068
 C       -0.633167290    -0.873654261    -1.524088531
 C       -0.604249249    -0.867610572     1.541651743
 H        1.270002606     2.695316918    -0.425710651
 H        0.375949277     4.954648180    -0.416720295
 H       -3.564334530     3.433477970     0.414217377
 H       -2.709876804     1.157273070     0.423840457
 H       -3.308661817     5.743053939     0.204053044
 H       -0.455691801     6.796991224    -0.379522909
 H       -0.183243167     9.096875049    -0.566174462
 H       -1.018547597    11.381573391    -0.559974604
 H       -5.035014537     9.863498340     0.153753001
 H       -4.143800542     7.600887890     0.210367246
 H       -5.843544818    12.006327406    -1.378871904
 H       -6.270740654    13.442054076     1.357030270
 H       -8.490410372    13.827423750     1.985153704
 H      -10.909918277    13.707636043     1.577657030
 H      -10.160104317    11.647999800    -2.146307684
 H       -7.760453090    11.859801307    -1.776885803
 H      -13.683431977    12.243308880    -1.881040963
 H      -12.363612792    11.041802318    -1.991973405
 H      -12.134921414    12.711311957    -2.609429185
 H      -15.414343708    11.214100182     3.551331133
 H      -14.441198771    12.602480663     2.978151087
 H      -14.351337537    12.059715875     4.686376305
 H      -11.247657461     9.201245208     3.194533354
 H       -8.907160948     9.839329027     3.626233497
 H      -10.184746648    13.809682772     4.700998112
 H      -12.502933921    13.211281598     4.206531220
 H       -7.313785117    11.323797059     4.285511237
 H       -8.214935096    14.211822386     5.065998043
 H       -3.400520135    12.572039161     6.621828332
 H       -1.996176623    10.655973207     6.130926617
 H       -4.263101485     9.844508364     2.564162781
 H       -5.689269588    11.764432904     3.004278754
 H       -2.482420439     8.428315423     3.066226601
 H       -0.889307734     9.048345078     5.649835185
 H       -1.355174943     6.801976010     2.594756361
 H        0.052901469     4.880788319     2.136659253
 H        2.348364359     5.747328578     5.733549109
 H        0.894395692     7.648279243     6.169176154
 H      -12.661829937    12.663036665     1.534209951
 H      -13.994472226    12.284508839     0.412216352
 H      -12.949721107     9.990210822    -0.023625965
 H      -11.626773029    10.392251009     1.068143895
 H      -14.624651003    10.063386200     1.785928963
 H      -13.289459351     8.979626220     2.242461046
 H        2.267599952    -1.027728401     0.072503566
 H        2.271656386     0.572404073     0.856178184
 H        2.277321616     0.446245139    -0.923947976
 H        3.751173362     3.046341799     1.530932699
 H        3.802396947     4.808693283     1.792843341
 H        2.363383787     4.062859649     1.055126353
 H        4.413315699     4.405608027     4.802786330
 H        3.356131530     3.371682474     5.799268814
 H        4.399675635     2.642972232     4.555532211
 H        0.459819709     2.283840086     2.848853115
 H        1.869128151     1.267823819     3.266146922
 H        0.882857473     2.006535442     4.554495442
 H       -5.388325451    14.881535519     2.996819857
 H       -5.882714891    16.071618243     4.228393235
 H       -4.212336746    15.450349067     4.208417516
 H       -5.852834865    13.500830471     7.676565316
 H       -4.586897715    14.669715086     7.214849536
 H       -6.297732601    15.159806837     7.210280274
 H       -3.434805500    12.830179596     2.247489652
 H       -2.088487172    13.551914267     1.347126552
 H       -3.648923334    14.408959225     1.440218020
 H       -3.297931210    12.934763520    -2.639427767
 H       -3.469070039    14.477397862    -1.765818221
 H       -1.954313664    13.547335448    -1.643847810
 H       -0.290125882    -0.371529567    -2.446852772
 H       -0.281893667    -1.919778201    -1.564123487
 H       -1.737301094    -0.891204965    -1.551181099
 H       -0.266743576    -0.340868904     2.453752668
 H       -1.706504747    -0.917423977     1.577515152
 H       -0.223649118    -1.902731872     1.594857367

