139   

Si        0.000000000     0.000000000     0.000000000
 C        1.869219717     0.000000000     0.000000000
 C       -0.644789594     1.729944165     0.000000000
 C        0.095459631     2.770514015    -0.571211303
 C       -0.395562716     4.075796978    -0.568925809
 C       -1.639159737     4.370174706    -0.003233441
 C       -2.381647958     3.326008341     0.563800216
 C       -1.892773600     2.022074063     0.564746084
 C       -2.193725641     5.719734155     0.022521559
 C       -1.586405725     6.806889086    -0.482595087
 C       -2.142773003     8.155856049    -0.455831233
 C       -3.387334740     8.446055701     0.111119230
 C       -3.882131452     9.749564347     0.115617623
 C       -3.136430790    10.793091401    -0.442418088
 C       -1.889446014    10.507052654    -1.011371741
 C       -1.401733673     9.202548781    -1.020033257
Si       -3.786848986    12.519138287    -0.438807364
 C       -2.368540867    13.663568672    -0.636223677
 C       -2.213347063    14.536450791    -1.639815855
 C       -1.067974757    15.440204831    -1.772389001
 C       -1.021242069    16.310705419    -2.872703469
 C        0.038930373    17.184728238    -3.044662632
 C        1.107640314    17.191880383    -2.124825569
 C        1.062110894    16.328253528    -1.020794169
 C       -0.025859667    15.479768845    -0.843279846
 N        2.159465607    18.112380658    -2.362178069
 C        2.891647224    17.910614001    -3.628930041
 C        3.028500017    18.411032461    -1.214296492
 C        4.094414172    16.951721182    -3.580969076
 C        3.737106791    15.486486250    -3.269047946
 N        3.161295580    14.721188687    -4.384671032
 C        3.850493501    14.693187761    -5.600205941
 C        5.262118148    14.765818940    -5.612211466
 C        5.954935323    14.738884335    -6.811001111
 C        5.287423746    14.586247982    -8.034641299
 C        3.893246301    14.483738589    -8.018330201
 C        3.179123782    14.530520957    -6.829265450
 C        1.694139356    14.701532354    -4.425968482
 C        6.068876729    14.564496921    -9.271861121
 C        5.537677232    14.424403426   -10.493718621
Si        6.476785504    14.391899713   -12.065312663
 C        5.893853376    15.785158577   -13.126309704
 C        5.173811094    16.849507581   -12.574346204
 C        4.735064650    17.900410480   -13.379322189
 C        5.011320205    17.914080572   -14.749176298
 C        5.736661805    16.848295490   -15.298765384
 C        6.174230438    15.796142074   -14.498479717
 C        4.573000564    18.991641717   -15.630287564
 C        3.872979399    20.067876257   -15.233248027
 C        3.435110216    21.144940870   -16.115163346
 C        3.710032240    21.156216428   -17.485538540
 C        3.272212478    22.206159218   -18.291791786
 C        2.554535011    23.274525265   -17.742880654
 C        2.278139696    23.265666237   -16.370057101
 C        2.710579023    22.212058339   -15.568266405
Si        1.975570002    24.663986281   -18.812022990
 C        3.179298157    24.933567435   -20.216869661
 C        0.295156479    24.216584620   -19.495917429
 C        1.852111176    26.238049834   -17.810746153
 C        8.311277005    14.589956983   -11.778419569
 C        6.134090722    12.761592208   -12.911569060
 C       -5.016752401    12.695364534    -1.831740672
 C       -4.611295729    12.897170106     1.193929385
 C       -0.629627930    -0.858006603    -1.535971274
 C       -0.602306174    -0.903765491     1.521954997
 H        1.074115440     2.602641726    -1.029430169
 H        0.202210879     4.868022003    -1.016492853
 H       -3.352959834     3.533067229     1.009408928
 H       -2.517024651     1.249879059     1.022762708
 H       -3.176221233     5.800745545     0.497135272
 H       -0.604303902     6.726408307    -0.958003948
 H       -3.983626653     7.650961988     0.555050973
 H       -4.862058202     9.914834546     0.571656088
 H       -1.265028451    11.285218366    -1.463168361
 H       -0.431582249     8.997505183    -1.469603367
 H       -1.620263656    13.581282306     0.168987985
 H       -2.943410018    14.641779831    -2.453273198
 H       -1.836607725    16.309962338    -3.596840955
 H        0.046230538    17.881704045    -3.880757171
 H        1.867060096    16.318929000    -0.291738838
 H       -0.048898345    14.825657082     0.029863980
 H        3.688878719    19.255838822    -1.478339403
 H        3.655029311    17.568570966    -0.882656858
 H        2.402855965    18.741127853    -0.365279586
 H        1.282117756    14.683603697    -3.399559465
 H        1.354952036    13.771660808    -4.918996550
 H        1.256717503    15.567014512    -4.950137356
 H        5.812849154    14.842133817    -4.679849990
 H        7.042418719    14.820575963    -6.797639053
 H        3.347895274    14.364363116    -8.956356595
 H        2.097449114    14.452476512    -6.864016395
 H        7.148074186    14.677400916    -9.103381754
 H        4.450281941    14.307829339   -10.630086611
 H        4.930995070    16.894068017   -11.507298529
 H        4.173118498    18.715698395   -12.927169913
 H        5.961870662    16.840208959   -16.363478362
 H        6.734280719    14.991567944   -14.982567062
 H        4.858715644    18.869078966   -16.679244766
 H        3.587245645    20.190677169   -14.184373911
 H        4.270808683    20.339392071   -17.936570286
 H        3.516411360    22.157215300   -19.356633182
 H        1.722113206    24.072865494   -15.885377767
 H        2.483681091    22.222554417   -14.503732039
 H        2.179749011    17.571916986    -4.414465812
 H        3.246485901    18.920590724    -3.948622442
 H        4.619633261    17.006526288    -4.558483427
 H        4.832152844    17.308079119    -2.837764454
 H        4.656539839    14.945811558    -2.936296483
 H        3.036242727    15.439827978    -2.404213004
 H        2.267422319    -1.028580604     0.060717349
 H        2.269875470     0.562370152     0.862863859
 H        2.279416846     0.458503463    -0.916832571
 H        2.881477178    25.797105000   -20.837800013
 H        3.237226111    24.053953725   -20.881484222
 H        4.198007997    25.132919225   -19.837539812
 H        0.337648404    23.285923268   -20.089896139
 H       -0.438612274    24.055564855   -18.685688622
 H       -0.098995091    25.013555511   -20.150448840
 H        2.814344144    26.478852562   -17.323557969
 H        1.580266724    27.096708352   -18.450236916
 H        1.086533877    26.161451472   -17.019074179
 H        8.537779962    15.546941737   -11.273794463
 H        8.710987002    13.774486510   -11.149807706
 H        8.869979058    14.581562653   -12.731286201
 H        5.061347908    12.652113266   -13.153432070
 H        6.699572539    12.665004380   -13.854431599
 H        6.415735920    11.910857822   -12.264657620
 H       -4.549837973    12.483262406    -2.810905501
 H       -5.859984584    11.991027405    -1.712728820
 H       -5.438397319    13.715400601    -1.872633240
 H       -3.924953771    12.721843154     2.042242440
 H       -4.934292522    13.953181392     1.241999742
 H       -5.505166493    12.269040382     1.353247885
 H       -0.284203070    -0.346537976    -2.452506650
 H       -0.279913774    -1.904146826    -1.584999237
 H       -1.734007737    -0.872673721    -1.564547474
 H       -0.313335371    -0.368846250     2.444832259
 H       -1.701133022    -1.009715688     1.528188863
 H       -0.172698381    -1.919755070     1.579063620

