139   

Si        0.000000000     0.000000000     0.000000000
 C        1.869661497     0.000000000     0.000000000
 C       -0.625077703     1.735986057     0.000000000
 C        0.149376272     2.774767875    -0.526901438
 C       -0.327312396     4.085077250    -0.524660461
 C       -1.581202426     4.388929035     0.012733797
 C       -2.356370408     3.346815725     0.537678817
 C       -1.888658407     2.035271959     0.524972854
 C       -2.118828960     5.745069760     0.035838127
 C       -1.480781205     6.824788609    -0.446363416
 C       -2.016668359     8.181217939    -0.424124643
 C       -3.270949528     8.488548361     0.112864987
 C       -3.742846819     9.799249264     0.112789896
 C       -2.978478465    10.830026236    -0.449537067
 C       -1.728500127    10.523913635    -0.996722754
 C       -1.253076180     9.214066497    -0.981712141
Si       -3.634077554    12.554426428    -0.432425476
 C       -3.942929485    13.039547062     1.308114742
 C       -3.710559672    12.230423656     2.349920993
 C       -3.943801732    12.580452530     3.750812595
 C       -3.648093352    11.616317434     4.729629368
 C       -3.845863924    11.883983657     6.071693713
 C       -4.402623577    13.116130036     6.473739451
 C       -4.702538946    14.079287376     5.500200240
 C       -4.450750505    13.814492380     4.156068509
 N       -4.580053506    13.329705094     7.865136071
 C       -5.406131620    12.320814395     8.553802410
 C       -4.881374731    14.709523682     8.277283223
 C       -6.932412722    12.463052879     8.383706453
 C       -7.422369851    12.134417992     6.961806549
 N       -7.034608487    10.779400332     6.511260195
 C       -7.136110001    10.522496468     5.128158710
 C       -7.091759388    11.565348583     4.179254057
 C       -7.192920843    11.295494553     2.823837789
 C       -7.290642504     9.980125254     2.349189396
 C       -7.293870200     8.943113812     3.285717015
 C       -7.203386134     9.198608002     4.647600393
 C       -7.530815216     9.703897884     7.388749321
 C       -7.395375926     9.749494691     0.907331862
 C       -7.493522083     8.537806037     0.344047124
Si       -7.626503481     8.201014929    -1.451911277
 C       -6.187019391     7.158390233    -1.942195842
 C       -5.048719429     7.730517652    -2.518312243
 C       -3.965120020     6.933289123    -2.885714217
 C       -3.998479036     5.549861298    -2.692374778
 C       -5.139738029     4.978930049    -2.114218427
 C       -6.219962362     5.772831280    -1.739233944
 C       -2.889760757     4.676632240    -3.060857035
 C       -1.741921197     5.093814362    -3.621099756
 C       -0.637498043     4.213998807    -3.986805699
 C       -0.678293819     2.831257652    -3.781818243
 C        0.398676465     2.025873701    -4.145545259
 C        1.553607386     2.589743313    -4.701121208
 C        1.601378659     3.973983642    -4.897444933
 C        0.517233534     4.775521859    -4.545433830
Si        2.959263669     1.491378309    -5.170385363
 C        2.372081792     0.301678664    -6.486572431
 C        4.397069799     2.488390932    -5.826711390
 C        3.504088887     0.543602095    -3.652855515
 C       -9.221493508     7.274046795    -1.760134779
 C       -7.643697215     9.777653565    -2.453381948
 C       -2.414943587    13.750660707    -1.188476719
 C       -5.245222332    12.615533944    -1.377729123
 C       -0.630505994    -0.858956395    -1.536334271
 C       -0.610335122    -0.897367787     1.522452792
 H        1.138408219     2.602270639    -0.961770828
 H        0.289734431     4.873281100    -0.953945043
 H       -3.337021520     3.562316399     0.957176569
 H       -2.539902781     1.263894716     0.943159487
 H       -3.115063363     5.837511910     0.479230317
 H       -0.488306542     6.729987595    -0.896531582
 H       -3.892089203     7.701275028     0.539059436
 H       -4.730119556     9.977474066     0.558090972
 H       -1.089409281    11.287317919    -1.446326463
 H       -0.276358516     8.994954013    -1.407601894
 H       -4.333402318    14.057184333     1.443649929
 H       -3.314561424    11.208569413     2.231424306
 H       -3.252318534    10.644608361     4.429208478
 H       -3.586322341    11.138203972     6.820171675
 H       -5.126191362    15.038017846     5.778251238
 H       -4.672017693    14.582405793     3.415219671
 H       -4.857624453    14.769464822     9.378661252
 H       -5.854831686    15.087492339     7.928443571
 H       -4.086817457    15.378218110     7.899038348
 H       -7.512566190    10.017180840     8.444103958
 H       -6.852941426     8.834005703     7.308257350
 H       -8.556627712     9.383009008     7.143901590
 H       -6.968275946    12.598363881     4.497906727
 H       -7.170158611    12.125800157     2.116008097
 H       -7.356858037     7.907621568     2.948402572
 H       -7.189329557     8.358735532     5.334077240
 H       -7.388829411    10.677976654     0.320891378
 H       -7.496383879     7.625005305     0.961025220
 H       -4.959219517     8.807632636    -2.688945502
 H       -3.084408852     7.404200005    -3.319919012
 H       -5.182629999     3.903609338    -1.953497557
 H       -7.081255212     5.272112960    -1.290039467
 H       -3.048193648     3.616760043    -2.838042841
 H       -1.578577347     6.153338982    -3.837181628
 H       -1.557957797     2.371384345    -3.332861578
 H        0.302486276     0.949657915    -3.976015626
 H        2.476292777     4.467963866    -5.326915889
 H        0.571154222     5.850058790    -4.708875927
 H       -5.095877761    11.306360448     8.205744203
 H       -5.147948210    12.374822674     9.636355981
 H       -7.436295339    11.817606752     9.127566325
 H       -7.248880752    13.494314973     8.632191871
 H       -8.525309592    12.272306941     6.907356270
 H       -6.964062630    12.880523325     6.265930534
 H        2.270428767    -1.026253596     0.068854021
 H        2.267519653     0.570454530     0.858708502
 H        2.278486323     0.455410308    -0.920274126
 H        3.177526868    -0.387421604    -6.794866508
 H        2.031911595     0.841042438    -7.389237516
 H        1.524877144    -0.311379874    -6.131658113
 H        4.116868507     3.056334109    -6.731634808
 H        4.765534122     3.211111595    -5.077171843
 H        5.244470853     1.834008762    -6.098537345
 H        2.685553576    -0.080340542    -3.250931828
 H        4.351353738    -0.126080127    -3.881415982
 H        3.828098025     1.229034652    -2.848977552
 H       -9.288936447     6.354357752    -1.154261319
 H      -10.098051228     7.898053310    -1.509752520
 H       -9.312666688     6.981735623    -2.821452486
 H       -6.726020225    10.373498962    -2.296984190
 H       -7.715684755     9.558889847    -3.534106802
 H       -8.506397950    10.412951433    -2.185842545
 H       -1.457534976    13.750935957    -0.636034720
 H       -2.196153369    13.497048064    -2.240277519
 H       -2.802545042    14.784477738    -1.170854890
 H       -6.009495821    11.970887279    -0.906161062
 H       -5.651243739    13.641108297    -1.413737576
 H       -5.108965132    12.273500214    -2.418942737
 H       -0.254290871    -0.370936768    -2.453530896
 H       -0.311055052    -1.915077559    -1.564444385
 H       -1.733988584    -0.842085517    -1.580996003
 H       -0.312359793    -0.365959761     2.444468346
 H       -1.710192355    -0.987579743     1.532338931
 H       -0.194553365    -1.918586935     1.579477877

