139   

Si        0.000000000     0.000000000     0.000000000
 C        1.869286719     0.000000000     0.000000000
 C       -0.647432543     1.729039810     0.000000000
 C        0.206331063     2.824804831    -0.155077607
 C       -0.299250272     4.125213040    -0.152789809
 C       -1.665253604     4.360914560     0.019713683
 C       -2.520270958     3.261141698     0.176431300
 C       -2.020525433     1.961680194     0.160733360
 C       -2.234658360     5.704082511     0.028450406
 C       -1.524888840     6.835110902    -0.124786653
 C       -2.095076035     8.178239952    -0.115942297
 C       -1.242330851     9.276758324    -0.286836996
 C       -1.743657077    10.576534587    -0.285091736
 C       -3.114442512    10.806263286    -0.121382523
 C       -3.967359902     9.710584594     0.053175062
 C       -3.460953725     8.412070562     0.063926631
Si       -3.807496289    12.520260504    -0.115007873
 C       -5.594013343    12.317102017    -0.464251017
 C       -6.629919646    12.677510529     0.303334492
 C       -8.027320669    12.463443019    -0.081735036
 C       -9.050883254    12.872366018     0.783832237
 C      -10.384205850    12.687070802     0.454874561
 C      -10.749012808    12.123977884    -0.785083039
 C       -9.721890574    11.712919269    -1.655347245
 C       -8.389915054    11.863357025    -1.290759612
 N      -12.106975031    11.939042302    -1.111627793
 C      -13.079884028    12.896937029    -0.560808147
 C      -12.411104696    11.555846574    -2.500579081
 C      -12.915557971    14.321798376    -1.116201008
 C      -13.923747018    15.310731121    -0.506271476
 N      -13.846148343    15.488815921     0.959947468
 C      -12.541831422    15.540537018     1.498459444
 C      -11.606994671    16.408413837     0.894210138
 C      -10.316557924    16.493350958     1.386746214
 C       -9.918036254    15.744680889     2.505398884
 C      -10.853935860    14.908531824     3.116902813
 C      -12.155462470    14.812573416     2.635532695
 C      -14.838901446    14.694626456     1.700683424
 C       -8.539945200    15.876165978     2.980527412
 C       -8.038726390    15.217981612     4.033944983
Si       -6.315806158    15.380722574     4.630012659
 C       -5.466462584    13.746008757     4.567800422
 C       -6.022270913    12.630568461     3.935349852
 C       -5.339215535    11.412489207     3.915070830
 C       -4.079110274    11.295189289     4.506166914
 C       -3.521811849    12.418861493     5.135043861
 C       -4.207044637    13.628178597     5.171684981
 C       -3.309365642    10.058284187     4.523378365
 C       -3.678407292     8.887728370     3.976747995
 C       -2.853842410     7.682986952     4.031896247
 C       -1.607486686     7.669697803     4.667109767
 C       -0.838025936     6.509898167     4.707714192
 C       -1.305511099     5.326760778     4.123575898
 C       -2.551897856     5.335697085     3.488079722
 C       -3.314157915     6.502368940     3.437838728
Si       -0.252646457     3.813544656     4.200993930
 C        0.314345656     3.565552787     5.968328753
 C       -1.228091200     2.313220036     3.673915338
 C        1.235154006     4.044016638     3.097479205
 C       -5.347416204    16.569166982     3.560701312
 C       -6.372532293    15.993428740     6.393714939
 C       -3.442188952    13.365450839     1.498830371
 C       -3.061305951    13.511230191    -1.515524698
 C       -0.625888221    -0.868527744    -1.531417271
 C       -0.609929599    -0.884239731     1.529864050
 H        1.285338000     2.705566390    -0.285803935
 H        0.385695391     4.961336518    -0.285959050
 H       -3.588620109     3.422398174     0.307239582
 H       -2.736207638     1.143514741     0.278280334
 H       -3.317571249     5.741864516     0.175969306
 H       -0.440433345     6.799244520    -0.262568979
 H       -0.174386012     9.115860271    -0.418541779
 H       -1.031283001    11.394798792    -0.415825888
 H       -5.046964241     9.830863077     0.194893028
 H       -4.143016040     7.577130877     0.211494047
 H       -5.764731226    11.835150192    -1.443341968
 H       -6.508053636    13.166098135     1.278443270
 H       -8.800658527    13.347889436     1.736010403
 H      -11.149022788    12.998734910     1.163248212
 H       -9.951747054    11.267400654    -2.617069759
 H       -7.617401650    11.518362670    -1.980260301
 H      -13.500416574    11.449379230    -2.632786962
 H      -11.967163630    10.564331303    -2.706462856
 H      -12.039034477    12.276033581    -3.247169729
 H      -15.840852677    14.882104834     1.276868937
 H      -14.871861013    15.040398829     2.750188171
 H      -14.653108411    13.609327412     1.690621062
 H      -11.904346420    17.013332795     0.041489232
 H       -9.601368665    17.156148119     0.897897787
 H      -10.570358223    14.319115198     3.990509547
 H      -12.854478317    14.152524188     3.138934788
 H       -7.942267270    16.572293060     2.375583367
 H       -8.658483374    14.526919556     4.626209223
 H       -7.003481098    12.668713694     3.450993209
 H       -5.792618584    10.554102131     3.421497417
 H       -2.542204612    12.344918569     5.603607796
 H       -3.724073993    14.465244618     5.683302588
 H       -2.346293394    10.140849345     5.040132817
 H       -4.628075097     8.783643104     3.447413618
 H       -1.221550020     8.574594730     5.133539420
 H        0.130938078     6.566870646     5.211275957
 H       -2.959481918     4.443036088     3.005422319
 H       -4.276940066     6.491461994     2.931448336
 H      -14.103308802    12.512843508    -0.768082987
 H      -12.974464004    12.899837202     0.549492400
 H      -11.876353747    14.667813395    -0.930422263
 H      -13.028437843    14.317272611    -2.216012762
 H      -13.764435046    16.319627489    -0.959239525
 H      -14.959084955    15.013993111    -0.781553818
 H        2.267003521    -1.029568743     0.046768155
 H        2.272661437     0.549796879     0.869306120
 H        2.276169254     0.468307057    -0.913648048
 H        0.926840744     2.652723076     6.067010106
 H       -0.547845175     3.464825379     6.651646996
 H        0.921807311     4.414949258     6.324989273
 H       -2.136319548     2.183601896     4.287590410
 H       -1.544987519     2.397165664     2.616243396
 H       -0.626993220     1.392042587     3.766040626
 H        1.833031523     4.920944202     3.400001228
 H        1.893316952     3.158487872     3.122238459
 H        0.924657260     4.199165026     2.047016772
 H       -5.317939455    16.231843651     2.507946147
 H       -5.790552434    17.580364419     3.577928057
 H       -4.302453859    16.658988626     3.906588874
 H       -6.892318475    15.275236112     7.053312027
 H       -5.359558589    16.146457237     6.804666816
 H       -6.909944301    16.956222350     6.464899488
 H       -3.844841830    12.792696961     2.358335275
 H       -2.355738951    13.471844287     1.664948677
 H       -3.889254632    14.374670340     1.539684428
 H       -3.191245142    13.000308029    -2.485848372
 H       -3.537722296    14.504365396    -1.596723888
 H       -1.979753023    13.671031480    -1.365451935
 H       -0.280306862    -0.360057374    -2.449784600
 H       -0.271408659    -1.913191826    -1.575619061
 H       -1.729721261    -0.888516291    -1.562693104
 H       -0.245543897    -0.389629360     2.448961065
 H       -1.712747387    -0.902902165     1.577953555
 H       -0.258301692    -1.930695415     1.553886032

