139   

Si        0.000000000     0.000000000     0.000000000
 C        1.869372091     0.000000000     0.000000000
 C       -0.630054543     1.735565820     0.000000000
 C        0.059127006     2.740192587    -0.688456909
 C       -0.414044351     4.051723746    -0.690382585
 C       -1.586500832     4.388576922    -0.008369665
 C       -2.277817253     3.380950940     0.676538317
 C       -1.808133701     2.069898447     0.679033193
 C       -2.120205513     5.745700103     0.018267824
 C       -1.560511285     6.802929656    -0.594478898
 C       -2.106709541     8.155128265    -0.558566598
 C       -1.434435527     9.180326752    -1.236874467
 C       -1.925112542    10.484959270    -1.225804892
 C       -3.094032878    10.794453824    -0.523115517
 C       -3.761935922     9.773464256     0.163427388
 C       -3.271547716     8.469880907     0.147938873
Si       -3.792556221    12.504231880    -0.471713745
 C       -5.609630262    12.257324317    -0.492803167
 C       -6.472413202    12.655321597     0.450855841
 C       -7.918169469    12.429496688     0.379708547
 C       -8.729982374    12.889832319     1.426524840
 C      -10.102223076    12.699443902     1.403332034
 C      -10.699868924    11.970288440     0.355069367
 C       -9.889053496    11.501125708    -0.690787457
 C       -8.522794407    11.755322175    -0.685079317
 N      -12.106391041    11.801009934     0.372850530
 C      -12.656991933    11.237970788     1.624111035
 C      -12.699341782    11.181931047    -0.825687808
 C      -12.166307784     9.815684082     1.958171280
 C      -11.132584148     9.826483427     3.102497869
 N      -10.333841670     8.586954534     3.206524970
 C       -9.449066418     8.393014203     2.107332524
 C       -8.438613289     9.354930633     1.919983309
 C       -7.545006089     9.226588120     0.870765219
 C       -7.579118777     8.110625328     0.021353148
 C       -8.564627119     7.144906599     0.231479113
 C       -9.495263243     7.279705596     1.258269566
 C      -11.147309140     7.419513074     3.586924809
 C       -6.606180297     8.033693042    -1.071172401
 C       -6.537620289     7.022883632    -1.945989574
Si       -5.334749310     6.894379049    -3.323206995
 C       -6.316437539     6.815179953    -4.885616327
 C       -7.532406863     7.505545678    -4.974577821
 C       -8.285641007     7.457233583    -6.144222205
 C       -7.839073826     6.729200662    -7.255349039
 C       -6.623020962     6.046562778    -7.164395746
 C       -5.868275182     6.088240343    -5.992170429
 C       -8.664711434     6.709365624    -8.458434580
 C       -8.357210912     6.048823999    -9.587662678
 C       -9.184082720     6.030076421   -10.789908602
 C      -10.400121645     6.713256863   -10.879561132
 C      -11.158823863     6.668138685   -12.048614326
 C      -10.721428938     5.930379309   -13.153776872
 C       -9.503614105     5.244178935   -13.066283343
 C       -8.744326237     5.296918127   -11.899961696
Si      -11.723388966     5.868444309   -14.703132187
 C      -13.537495683     6.083408895   -14.304831438
 C      -11.155081488     7.249904342   -15.825906454
 C      -11.482582502     4.221178429   -15.554157624
 C       -4.260057403     8.413857926    -3.450350761
 C       -4.285464147     5.375929729    -3.064257869
 C       -3.208843553    13.364927747     1.075335528
 C       -3.302783706    13.477367582    -1.985889416
 C       -0.633676398    -0.851500834    -1.537980362
 C       -0.605563827    -0.907273532     1.518162476
 H        0.982177756     2.537980276    -1.238690045
 H        0.141889531     4.815493772    -1.231214370
 H       -3.194435890     3.622043919     1.213078990
 H       -2.389989230     1.326491138     1.230953393
 H       -3.047672710     5.860298443     0.590129345
 H       -0.636789127     6.693706645    -1.168718605
 H       -0.520605606     8.957652015    -1.783965903
 H       -1.364552389    11.242047517    -1.779497856
 H       -4.675611578     9.959260520     0.740318399
 H       -3.813618356     7.692935258     0.687342844
 H       -5.960403546    11.730956646    -1.397240917
 H       -6.158865788    13.186809772     1.358198130
 H       -8.280547008    13.424983454     2.263283133
 H      -10.720696768    13.114159698     2.195097043
 H      -10.311462993    10.926588075    -1.509947156
 H       -7.917466254    11.393351094    -1.518925108
 H      -13.799161752    11.237182608    -0.752936137
 H      -12.413840610    10.128866285    -0.978180893
 H      -12.408056247    11.764477407    -1.718175657
 H      -11.661154636     7.641154808     4.538261763
 H      -10.479900011     6.558946982     3.771865780
 H      -11.903598933     7.127427955     2.842850111
 H       -8.372167312    10.209038060     2.591984223
 H       -6.791528765    10.003364270     0.718511078
 H       -8.618975401     6.270333747    -0.417507506
 H      -10.259190607     6.518912794     1.382609339
 H       -5.926117911     8.897158066    -1.108327087
 H       -7.227908639     6.166536372    -1.883433539
 H       -7.930231281     8.090308431    -4.137879845
 H       -9.231357557     7.993224135    -6.194277958
 H       -6.254179160     5.473155714    -8.012703191
 H       -4.927564433     5.531104354    -5.977179668
 H       -9.590258912     7.288386360    -8.386724959
 H       -7.431976909     5.469593284    -9.659585617
 H      -10.765766772     7.290549593   -10.032177090
 H      -12.100239481     7.224373302   -12.058096060
 H       -9.111342743     4.651105984   -13.896959709
 H       -7.799602435     4.758336673   -11.852251226
 H      -12.422046803    11.942808425     2.452817364
 H      -13.767144621    11.247737002     1.536331017
 H      -13.020625947     9.170992761     2.226745310
 H      -11.714826988     9.347803083     1.060334633
 H      -10.425872615    10.679110619     2.968564698
 H      -11.637270188     9.989596742     4.079624535
 H        2.268574848    -1.028386681     0.055626606
 H        2.268939482     0.558738297     0.865866977
 H        2.279414519     0.464438784    -0.913734825
 H      -14.159042197     5.989431379   -15.212992178
 H      -13.745899385     7.073773660   -13.863792435
 H      -13.882161193     5.318048279   -13.586090057
 H      -11.287834574     8.236915047   -15.347287309
 H      -10.084164806     7.148500281   -16.077913749
 H      -11.722283848     7.258489946   -16.773041015
 H      -11.732473599     3.382503987   -14.879292166
 H      -12.129221320     4.134053346   -16.445301760
 H      -10.439828840     4.080924233   -15.888357578
 H       -4.861235921     9.319136037    -3.648752376
 H       -3.693264863     8.589939072    -2.515601976
 H       -3.524688774     8.318178703    -4.268033120
 H       -4.895308990     4.456994270    -3.010554892
 H       -3.548988883     5.244127961    -3.875962269
 H       -3.714535195     5.447554667    -2.116857146
 H       -3.486227684    12.799182489     1.983673792
 H       -2.109347474    13.475480738     1.082870357
 H       -3.643714564    14.376404457     1.164102206
 H       -3.567659873    12.942643183    -2.916226148
 H       -3.813286374    14.457519624    -2.012985669
 H       -2.216127588    13.671498075    -2.010557854
 H       -0.287550004    -0.339087953    -2.453493721
 H       -0.288186327    -1.898911221    -1.589875770
 H       -1.738247461    -0.861921580    -1.565200350
 H       -0.316815962    -0.376573046     2.443537921
 H       -1.704633523    -1.012188839     1.521712934
 H       -0.177548911    -1.924210695     1.572302176

