139   

Si        0.000000000     0.000000000     0.000000000
 C        1.869187678     0.000000000     0.000000000
 C       -0.658093359     1.724280527     0.000000000
 C        0.189567075     2.833430688     0.072816280
 C       -0.331826964     4.127353253     0.071237776
 C       -1.710603711     4.341412018    -0.000213092
 C       -2.559480202     3.228317414    -0.071484106
 C       -2.041878922     1.936026559    -0.071219471
 C       -2.301353367     5.675890177    -0.004760960
 C       -1.601974111     6.821740158     0.057792859
 C       -2.192690893     8.156269741     0.053247881
 C       -3.572476703     8.369933980    -0.018266839
 C       -4.094570524     9.662698480    -0.019908175
 C       -3.243703933    10.771478161     0.043231135
 C       -1.861329566    10.561835345     0.114573830
 C       -1.344008878     9.268678875     0.122404075
Si       -3.933635659    12.483056540     0.041122852
 C       -2.595621994    13.646903654    -0.419193169
 C       -2.144405373    14.652809211     0.341653314
 C       -1.071911465    15.566437362    -0.056080816
 C       -0.684182298    16.584617960     0.827408591
 C        0.324577941    17.474659400     0.499166424
 C        1.021710159    17.346034601    -0.722578455
 C        0.634326269    16.324136700    -1.609731084
 C       -0.409661391    15.467864551    -1.282458635
 N        2.041538235    18.258584482    -1.037374819
 C        2.867149575    18.767284821     0.072509197
 C        2.781272095    18.037099989    -2.288034593
 C        3.538070987    17.687624421     0.938920010
 C        4.818737699    17.099317323     0.322361735
 N        6.034899662    17.909459211     0.510539007
 C        6.396939654    18.247065412     1.824032981
 C        6.122117595    17.348477531     2.878690204
 C        6.472873250    17.666508904     4.180158922
 C        7.149459392    18.857846156     4.480416952
 C        7.447177624    19.731547453     3.431436585
 C        7.087112528    19.437556495     2.122524398
 C        6.250040472    18.925118060    -0.530033405
 C        7.496213398    19.144423441     5.873462911
 C        8.140224103    20.247690178     6.276726648
Si        8.590907462    20.640774320     8.008456055
 C        7.768099803    22.224875869     8.476652150
 C        6.639024251    22.670190356     7.778700526
 C        6.017824817    23.865584610     8.131740198
 C        6.503353138    24.639650456     9.193904014
 C        7.627803618    24.189115885     9.891749828
 C        8.254104563    22.994316556     9.539035544
 C        5.817654161    25.884638356     9.525228060
 C        6.181173202    26.718176951    10.514683233
 C        5.494784173    27.962896514    10.845154019
 C        4.370865111    28.412695599    10.147230366
 C        3.745466639    29.609267350    10.497056197
 C        4.237091402    30.387813927    11.549685828
 C        5.364228055    29.939597359    12.250923457
 C        5.981735189    28.740744497    11.904238727
Si        3.420247367    31.974115313    12.024699369
 C        2.373321570    32.615287604    10.614857174
 C        2.341722499    31.657492939    13.517105873
 C        4.723948010    33.248572836    12.438725210
 C        8.028749701    19.308957788     9.189888822
 C       10.447824267    20.828006168     8.094533243
 C       -5.288469936    12.624648374    -1.237631664
 C       -4.617573555    12.850620075     1.738836104
 C       -0.612349732    -0.877817100    -1.532493048
 C       -0.619668938    -0.875168773     1.530755897
 H        1.276439924     2.728813392     0.131846290
 H        0.350746170     4.973576087     0.126751500
 H       -3.636843549     3.373213665    -0.127809204
 H       -2.753415812     1.107496250    -0.129033072
 H       -3.393547554     5.692210194    -0.064589456
 H       -0.509749661     6.805700322     0.118301940
 H       -4.253483418     7.522514488    -0.071549277
 H       -5.181492912     9.767373560    -0.075679513
 H       -1.150634629    11.393305628     0.168088383
 H       -0.266722980     9.124642632     0.181983139
 H       -2.171592930    13.455049837    -1.418155821
 H       -2.549962798    14.870265927     1.338778703
 H       -1.192896795    16.687777267     1.786827875
 H        0.575108033    18.275627666     1.189305118
 H        1.138067005    16.191880403    -2.561379213
 H       -0.700284564    14.694751964    -1.996001962
 H        3.524555555    18.838409727    -2.434040687
 H        2.076477941    18.099805045    -3.138960515
 H        3.298690950    17.064646593    -2.331440912
 H        5.941404172    18.532351053    -1.512909919
 H        7.332631546    19.143480962    -0.601596342
 H        5.712391656    19.869433227    -0.344012854
 H        5.629565084    16.401539594     2.676153470
 H        6.230485149    16.967694946     4.981860493
 H        7.973486951    20.665772922     3.635829491
 H        7.337459412    20.146765912     1.340755621
 H        7.173194733    18.358801859     6.569596472
 H        8.456376976    21.018010825     5.554956483
 H        6.214254365    22.105165608     6.942241693
 H        5.144130330    24.199119641     7.574765388
 H        8.025226013    24.771374932    10.721102632
 H        9.130381433    22.693966648    10.119932169
 H        4.952680075    26.111074871     8.894916837
 H        7.046067261    26.491173392    11.144916837
 H        3.971732473    27.828109307     9.320165460
 H        2.868823430    29.907071433     9.915298081
 H        5.792650024    30.505981225    13.082550413
 H        6.854857042    28.407977478    12.462667399
 H        3.629375503    19.464097369    -0.339190290
 H        2.206814161    19.400983641     0.713319563
 H        3.765597879    18.113359240     1.937953213
 H        2.818855755    16.865831843     1.135127499
 H        5.017265794    16.093063265     0.765627406
 H        4.677686334    16.914483501    -0.764966078
 H        2.266873330    -1.029761598    -0.044872907
 H        2.275349404     0.470561420     0.913038522
 H        2.273926070     0.547639784    -0.869828900
 H        1.961251846    33.613770444    10.846285775
 H        1.519393287    31.948072707    10.403291018
 H        2.964556647    32.708645627     9.686022055
 H        1.565495246    30.901996853    13.298473424
 H        2.934394301    31.281599629    14.370319924
 H        1.828440670    32.578096843    13.846029054
 H        5.412784550    33.405022896    11.588640072
 H        4.267092750    34.224650950    12.680153699
 H        5.333131977    32.944232116    13.307654106
 H        6.931395411    19.180095368     9.157961814
 H        8.489589532    18.334458434     8.949172323
 H        8.299142176    19.557421252    10.231953885
 H       10.798444323    21.663385042     7.461788054
 H       10.790423434    21.024006438     9.125393522
 H       10.955945830    19.911309571     7.743449265
 H       -4.927049780    12.336830179    -2.241460636
 H       -6.146858997    11.974677087    -0.994174154
 H       -5.664538873    13.661698713    -1.305726978
 H       -3.832559341    12.775114794     2.513456259
 H       -5.045529458    13.867525924     1.790639550
 H       -5.416675420    12.138268752     2.012002247
 H       -0.258056515    -0.373540905    -2.449916987
 H       -0.255219387    -1.922068904    -1.567575776
 H       -1.715605936    -0.901124762    -1.573822274
 H       -0.279023210    -0.364011482     2.449511682
 H       -1.723202173    -0.905934133     1.561352326
 H       -0.255055922    -1.916548772     1.573753601

