139   

Si        0.000000000     0.000000000     0.000000000
 C        1.869321159     0.000000000     0.000000000
 C       -0.635542525     1.733585492     0.000000000
 C        0.070337733     2.749616189    -0.653711876
 C       -0.408355313     4.059289590    -0.654585324
 C       -1.604624802     4.382779473    -0.008318745
 C       -2.312947752     3.363506860     0.641180093
 C       -1.836886235     2.054692770     0.644059814
 C       -2.144521374     5.737716964     0.017559207
 C       -1.567638140     6.803824186    -0.562780582
 C       -2.115011605     8.156212765    -0.531858436
 C       -1.416136973     9.184484936    -1.177036669
 C       -1.903386402    10.489966085    -1.171857270
 C       -3.098021776    10.795405965    -0.511667720
 C       -3.796101458     9.770492072     0.138257103
 C       -3.308435224     8.465632076     0.127807932
Si       -3.782745245    12.511482626    -0.477890032
 C       -5.596663030    12.284409593    -0.402495875
 C       -6.404899104    12.721180874     0.571289648
 C       -7.852543074    12.510162608     0.579383116
 C       -8.602543218    13.011680787     1.651167090
 C       -9.975700461    12.839105923     1.707056589
 C      -10.641530760    12.086822062     0.715138778
 C       -9.886102460    11.571400395    -0.354888826
 C       -8.519334406    11.802200724    -0.425161658
 N      -12.036531730    11.922326769     0.788415457
 C      -12.627486644    11.825406334     2.137649287
 C      -12.648594664    11.015256277    -0.195589983
 C      -11.943746146    10.825003730     3.086976413
 C      -12.400537109     9.371147090     2.864877802
 N      -11.319495873     8.372088470     2.996728656
 C      -10.427871679     8.326403978     1.887295293
 C      -10.971547362     7.933857872     0.649088252
 C      -10.163713800     7.866603409    -0.473877829
 C       -8.787822115     8.132500230    -0.391287050
 C       -8.249539408     8.496457105     0.844778488
 C       -9.055496097     8.595354038     1.975701065
 C      -10.683746443     8.393141050     4.324838850
 C       -7.992863774     8.043115926    -1.618035329
 C       -6.674843561     8.267394909    -1.698527157
Si       -5.722192015     8.142520859    -3.261756647
 C       -6.883913415     7.672596546    -4.618563556
 C       -7.337650677     6.352866710    -4.725664940
 C       -8.214402156     5.985099495    -5.744766714
 C       -8.667054356     6.927909580    -6.672604034
 C       -8.217458649     8.249719275    -6.559379053
 C       -7.337810763     8.619131722    -5.544360310
 C       -9.584626790     6.588467864    -7.755272253
 C      -10.088658638     5.362178126    -7.974493712
 C      -11.006262733     5.022719203    -9.057197305
 C      -11.455959066     5.963657717    -9.987668129
 C      -12.333295311     5.595304052   -11.007044922
 C      -12.774136778     4.272839534   -11.123983848
 C      -12.324158088     3.327718272   -10.193451053
 C      -11.454091243     3.700116175    -9.171741352
Si      -13.935707014     3.781143130   -12.472219911
 C      -13.702499491     4.891703740   -13.958183704
 C      -13.607801614     2.012587358   -12.982411482
 C      -15.683365380     3.941595125   -11.830679189
 C       -4.894904968     9.772810777    -3.630695208
 C       -4.421322566     6.816935052    -3.077717790
 C       -3.111100392    13.416625428     1.007475789
 C       -3.357420032    13.429363897    -2.046879932
 C       -0.633345810    -0.854324273    -1.536384987
 C       -0.604218630    -0.905557194     1.519962834
 H        1.011610904     2.558328320    -1.176556799
 H        0.161943242     4.832057565    -1.167168050
 H       -3.247745102     3.593346739     1.149981303
 H       -2.432692934     1.302332259     1.168324515
 H       -3.090306293     5.841469258     0.559470602
 H       -0.623273951     6.702399723    -1.104500645
 H       -0.483442101     8.964084287    -1.692475091
 H       -1.319854420    11.250747621    -1.696393556
 H       -4.736761263     9.956220699     0.670061942
 H       -3.869144337     7.684045198     0.638920939
 H       -5.999402974    11.728775079    -1.267333543
 H       -6.040337668    13.277643200     1.443974397
 H       -8.104286808    13.565585999     2.447152223
 H      -10.536026376    13.287554932     2.521703825
 H      -10.354949781    10.977237695    -1.134101481
 H       -7.960183364    11.394396859    -1.271005503
 H      -13.739488965    10.974575886    -0.046148629
 H      -12.247313492     9.987523996    -0.158690624
 H      -12.480651623    11.422281566    -1.210610537
 H      -11.464648639     8.269300580     5.094678810
 H      -10.119719125     9.312101817     4.547960029
 H      -10.000988004     7.528782266     4.410270278
 H      -12.025367948     7.672354376     0.584308794
 H      -10.601286448     7.579575943    -1.430870003
 H       -7.185602455     8.721035758     0.931788495
 H       -8.611380314     8.906034754     2.916629940
 H       -8.598177548     7.767063669    -2.495038460
 H       -6.078305626     8.544163531    -0.816047100
 H       -7.021139493     5.571775109    -4.027251302
 H       -8.547060221     4.950861127    -5.811504257
 H       -8.557358626     8.999004947    -7.271553313
 H       -7.021366607     9.665432907    -5.505369685
 H       -9.850725673     7.424826704    -8.408395785
 H       -9.821658506     4.525325993    -7.322251396
 H      -11.122829559     6.998051524    -9.922815966
 H      -12.651028912     6.376613863   -11.703045644
 H      -12.633724324     2.279803531   -10.235264125
 H      -11.116904840     2.951336331    -8.457187719
 H      -12.584806580    12.848700704     2.583971087
 H      -13.709710694    11.589370376     2.041427095
 H      -10.841459326    10.889137937     2.962449003
 H      -12.131900654    11.123868472     4.133691843
 H      -13.192201790     9.097603613     3.598088548
 H      -12.863477368     9.255684501     1.860445458
 H        2.268170830    -1.027384516     0.073601516
 H        2.269239755     0.573653978     0.855805577
 H        2.279117810     0.447921924    -0.922140713
 H      -14.338023523     4.568231617   -14.801626610
 H      -12.654254086     4.876745585   -14.307779643
 H      -13.964225542     5.939964782   -13.731364625
 H      -12.553174916     1.871904518   -13.281318354
 H      -13.819866212     1.303333952   -12.163512796
 H      -14.237275216     1.721805466   -13.842158038
 H      -15.903299069     4.977910943   -11.516973331
 H      -16.422704899     3.661150044   -12.601143444
 H      -15.850953144     3.290978366   -10.953558207
 H       -5.591299441    10.624418013    -3.542607395
 H       -4.056342458     9.948164219    -2.928735456
 H       -4.471491535     9.784891039    -4.650398663
 H       -4.858472108     5.844484757    -2.790855800
 H       -3.865427724     6.668132028    -4.020351345
 H       -3.681862308     7.086165676    -2.298421171
 H       -3.348635131    12.884952805     1.946844639
 H       -2.011951390    13.515118088     0.955758399
 H       -3.532816346    14.434917877     1.083364233
 H       -3.670423665    12.865055754    -2.943968540
 H       -3.863249631    14.411613029    -2.081558166
 H       -2.272214425    13.613323434    -2.129573710
 H       -0.288662751    -0.342887535    -2.453096169
 H       -0.286883839    -1.901474838    -1.587087173
 H       -1.737966086    -0.865866711    -1.563116311
 H       -0.319939207    -0.370698490     2.444269215
 H       -1.702724334    -1.015896329     1.521941462
 H       -0.171262518    -1.920175047     1.578231828

