139   

Si        0.000000000     0.000000000     0.000000000
 C        1.868303379     0.000000000     0.000000000
 C       -0.587715509     1.750084607     0.000000000
 C       -0.856389825     2.423277601    -1.195929468
 C       -1.300246285     3.746232277    -1.184145744
 C       -1.476629487     4.426306206     0.022791487
 C       -1.200045773     3.752479183     1.220544494
 C       -0.758549082     2.432808127     1.211166394
 C       -1.937106229     5.807415253     0.102129527
 C       -2.246685414     6.595072752    -0.941758832
 C       -2.704330862     7.975148590    -0.804810866
 C       -2.855649253     8.586029301     0.444416672
 C       -3.294189184     9.904982201     0.548320102
 C       -3.585757559    10.648543534    -0.599455015
 C       -3.435256638    10.041980989    -1.853055254
 C       -3.002574238     8.720959689    -1.953036072
Si       -4.166327350    12.395494511    -0.454336065
 C       -3.333168470    13.369596392    -1.763551684
 C       -3.951019093    14.044502832    -2.741834117
 C       -3.252667102    14.814338515    -3.774134125
 C       -4.006964970    15.481746173    -4.750084122
 C       -3.391593555    16.222350790    -5.746550706
 C       -1.985102981    16.259946160    -5.837377134
 C       -1.226855139    15.586224689    -4.866039478
 C       -1.858898132    14.897653868    -3.837726079
 N       -1.397906841    17.029475443    -6.871233455
 C       -1.897918473    16.748432889    -8.233334401
 C        0.069549603    17.157501407    -6.831017078
 C       -1.634584301    15.312996448    -8.728162624
 C       -2.922468100    14.465092408    -8.720063756
 N       -2.686190418    13.006970889    -8.765359422
 C       -2.087409803    12.497983101    -7.576339993
 C       -2.840440398    12.590573726    -6.391024770
 C       -2.319446109    12.115615886    -5.199348179
 C       -1.069431697    11.480482608    -5.157369194
 C       -0.340545757    11.366680931    -6.342502995
 C       -0.836215152    11.869467204    -7.542311798
 C       -2.065369106    12.571896657   -10.028287715
 C       -0.570690487    10.998920613    -3.866408191
 C        0.605292594    10.380043248    -3.707623963
Si        1.295784183     9.750975225    -2.130543303
 C        1.516951571     7.937737834    -2.395014318
 C        0.599025470     7.260780462    -3.207688881
 C        0.728327576     5.892442903    -3.434098803
 C        1.771536869     5.169543378    -2.848119465
 C        2.683441068     5.847182903    -2.029242582
 C        2.556593632     7.216097047    -1.800523293
 C        1.943029803     3.736111003    -3.059216136
 C        1.135929649     2.978128341    -3.820989710
 C        1.303178295     1.545055437    -4.035075885
 C        2.343133995     0.814567753    -3.452835659
 C        2.468398799    -0.554469578    -3.682347048
 C        1.545734957    -1.227549675    -4.491771212
 C        0.500176035    -0.499663423    -5.071348948
 C        0.381682428     0.870007126    -4.845457780
Si        1.733990282    -3.040968663    -4.779976797
 C        2.056283647    -3.880686094    -3.140332608
 C        0.176781315    -3.750663973    -5.531330767
 C        3.173800582    -3.314966096    -5.937739127
 C        2.954500010    10.573368250    -1.862035553
 C        0.205268202    10.087836022    -0.664091727
 C       -6.022587939    12.419397330    -0.647748853
 C       -3.684446991    13.123554607     1.196869489
 C       -0.638909559    -0.883440255    -1.515521190
 C       -0.629250266    -0.884221366     1.524179293
 H       -0.727604515     1.943440581    -2.172021275
 H       -1.497978115     4.250380934    -2.128225558
 H       -1.328945910     4.265586319     2.171464827
 H       -0.558632093     1.960899116     2.176601350
 H       -2.021787527     6.191614233     1.124814957
 H       -2.157036711     6.231776049    -1.968208761
 H       -2.632359564     8.031670398     1.354435138
 H       -3.393676810    10.322083265     1.553930686
 H       -3.652071766    10.575446634    -2.784511533
 H       -2.889290262     8.267834520    -2.936947568
 H       -2.233497319    13.366548882    -1.680578899
 H       -5.043438765    14.071317929    -2.847289167
 H       -5.095622896    15.436309661    -4.715938881
 H       -3.995085162    16.777737800    -6.459639433
 H       -0.141785892    15.581881554    -4.908938146
 H       -1.246141672    14.392700078    -3.088229472
 H        0.389501545    17.886517608    -7.595150849
 H        0.609219028    16.212794211    -7.004595185
 H        0.372230709    17.567816463    -5.850765066
 H       -2.710949818    12.887106100   -10.866146100
 H       -2.023134660    11.468274595   -10.048436425
 H       -1.053301035    12.967840199   -10.200930030
 H       -3.827528279    13.049215553    -6.411950013
 H       -2.906043335    12.219639007    -4.283325469
 H        0.635721225    10.880780056    -6.338739106
 H       -0.237371395    11.777381867    -8.442781125
 H       -1.257489411    11.194796765    -3.030937615
 H        1.270290618    10.196801778    -4.567925645
 H       -0.238618257     7.775639122    -3.691311740
 H        0.006870672     5.389706862    -4.075044085
 H        3.497930175     5.299979325    -1.558928629
 H        3.293601633     7.692622777    -1.149494466
 H        2.794377171     3.293741820    -2.533821516
 H        0.283541546     3.422274443    -4.343064077
 H        3.075491098     1.317713128    -2.822732707
 H        3.305232339    -1.070477303    -3.203198357
 H       -0.249079615    -0.972618083    -5.711606589
 H       -0.437162532     1.418702855    -5.307075664
 H       -2.985581771    16.983219527    -8.258121276
 H       -1.423919543    17.482874043    -8.923459449
 H       -1.201174286    15.332724458    -9.742715920
 H       -0.870141839    14.824993387    -8.090369466
 H       -3.517724361    14.686230013    -7.802803757
 H       -3.568545261    14.732154329    -9.584513294
 H        2.268764873    -1.028286097     0.008313682
 H        2.271566410     0.527742630     0.881903297
 H        2.261993142     0.506820261    -0.899640864
 H        2.103044417    -4.977972903    -3.253591419
 H        1.255732273    -3.654039901    -2.412322058
 H        3.011127948    -3.551515086    -2.694385757
 H       -0.704516114    -3.552190740    -4.895197400
 H       -0.026117681    -3.323738936    -6.529316252
 H        0.256514766    -4.845832114    -5.652769085
 H        4.110195910    -2.899383780    -5.524499213
 H        3.340089674    -4.390098506    -6.126515669
 H        3.001403483    -2.827831525    -6.914609704
 H        3.661919675    10.331907932    -2.674732952
 H        2.851667573    11.672702294    -1.827230468
 H        3.414354179    10.252605496    -0.911337957
 H       -0.821789842     9.702756581    -0.823119889
 H        0.593274937     9.601754666     0.248817693
 H        0.121827680    11.170080550    -0.459726724
 H       -6.333658267    12.008461437    -1.625360630
 H       -6.513532610    11.810792676     0.133095213
 H       -6.424598598    13.444938879    -0.569627224
 H       -2.598975113    13.033069162     1.380931838
 H       -3.938222120    14.198430868     1.245222240
 H       -4.209225493    12.624685909     2.030214427
 H       -0.204719097    -0.457878580    -2.441807573
 H       -0.379376242    -1.955999448    -1.497142242
 H       -1.737056316    -0.805662022    -1.596962451
 H       -0.214025626    -0.451580270     2.450460647
 H       -1.730384359    -0.825416704     1.592557284
 H       -0.354243304    -1.953340553     1.506151685

