139   

Si        0.000000000     0.000000000     0.000000000
 C        1.870191006     0.000000000     0.000000000
 C       -0.649103765     1.727098994     0.000000000
 C        0.151034331     2.808752200    -0.381170317
 C       -0.359943259     4.106567658    -0.373837445
 C       -1.682676256     4.350511946     0.005203619
 C       -2.483456357     3.265172848     0.381167923
 C       -1.975614532     1.969343162     0.378469426
 C       -2.264066514     5.688402791     0.029583252
 C       -1.603602897     6.810072201    -0.303381560
 C       -2.179444591     8.149591956    -0.280898421
 C       -3.502336947     8.394799792     0.098045682
 C       -4.009788385     9.692743448     0.104278134
 C       -3.201208187    10.777631592    -0.257136500
 C       -1.876266374    10.534454026    -0.634590300
 C       -1.374111427     9.235036056    -0.649349555
Si       -3.895117130    12.486144650    -0.241218147
 C       -4.827002367    12.802765675     1.304176269
 C       -4.992692291    11.923202565     2.300075452
 C       -5.741246575    12.195960777     3.527243973
 C       -5.836288708    11.180463537     4.492232414
 C       -6.531613778    11.382830006     5.671432855
 C       -7.190107339    12.608609823     5.904218880
 C       -7.094056598    13.627080688     4.943637005
 C       -6.357717886    13.421855222     3.781321334
 N       -7.886732182    12.764129567     7.125990413
 C       -8.853184031    11.686198704     7.435426460
 C       -8.406363000    14.110020903     7.419101990
 C       -9.639562260    11.120945423     6.239582792
 C      -10.431867557    12.203968435     5.486932864
 N      -11.197244955    11.682666884     4.340701377
 C      -10.445562029    11.147695568     3.269616353
 C       -9.323832475    11.856496159     2.793052309
 C       -8.567439054    11.357567733     1.744578406
 C       -8.920781030    10.162629688     1.100625477
 C      -10.049471176     9.477477010     1.557153908
 C      -10.808609460     9.956382849     2.618398797
 C      -12.389042905    10.923491957     4.754659630
 C       -8.094868053     9.667423478    -0.004851162
 C       -8.360370316     8.537468699    -0.672970288
Si       -7.430109454     7.795065660    -2.064699783
 C       -6.872487403     6.119060415    -1.523453388
 C       -6.819761068     5.785960662    -0.164444699
 C       -6.398265458     4.520212885     0.236345894
 C       -6.018450987     3.558885473    -0.708981607
 C       -6.064900255     3.897620175    -2.064506268
 C       -6.480388215     5.165474925    -2.468708532
 C       -5.583220999     2.245047538    -0.245234517
 C       -5.190188623     1.244910931    -1.052226719
 C       -4.753681000    -0.071126553    -0.598021380
 C       -4.700992872    -0.426896351     0.752320150
 C       -4.276442436    -1.698400484     1.138272224
 C       -3.898780328    -2.644039078     0.180271865
 C       -3.952328654    -2.290543293    -1.174758627
 C       -4.374352491    -1.020019150    -1.556989480
Si       -3.332116315    -4.335632982     0.656594276
 C       -3.129611626    -4.463658672     2.510181296
 C       -4.605762710    -5.573134884     0.077402483
 C       -1.686689088    -4.674235598    -0.162959712
 C       -8.626614662     7.621178767    -3.492930785
 C       -5.961856461     8.795220262    -2.620484823
 C       -2.539860949    13.762687794    -0.382309577
 C       -5.082647976    12.645833990    -1.676868249
 C       -0.629927318    -0.868335830    -1.528216913
 C       -0.608921402    -0.882961177     1.531086225
 H        1.191527087     2.679394784    -0.689481791
 H        0.284175627     4.931573460    -0.671204628
 H       -3.519226672     3.436270990     0.673273507
 H       -2.652560363     1.160617071     0.673885530
 H       -3.314173103     5.726779267     0.337571741
 H       -0.557108390     6.766682135    -0.618325358
 H       -4.150696561     7.567396255     0.386865664
 H       -5.057815587     9.819446621     0.401136983
 H       -1.197282548    11.340313927    -0.924913864
 H       -0.341667019     9.064973181    -0.948343093
 H       -5.262524362    13.812867244     1.357473599
 H       -4.556239957    10.913281376     2.282992347
 H       -5.351099556    10.219297748     4.314837715
 H       -6.569192336    10.599261569     6.424087611
 H       -7.585778787    14.582930134     5.092522529
 H       -6.281762083    14.231872532     3.054940381
 H       -8.749486656    14.140852873     8.468047274
 H       -9.236208798    14.430059037     6.770578889
 H       -7.584386336    14.844128171     7.335350472
 H      -12.934550092    11.490016425     5.528229155
 H      -12.165405867     9.920421586     5.150892610
 H      -13.071944306    10.823943704     3.891167709
 H       -9.033725225    12.795567550     3.261039964
 H       -7.682508763    11.909794858     1.417691380
 H      -10.350940411     8.544231958     1.078796464
 H      -11.671478290     9.384367511     2.942800884
 H       -7.237353236    10.311065205    -0.236068833
 H       -9.242464175     7.927757845    -0.406621587
 H       -7.105465912     6.497622930     0.617463013
 H       -6.366645542     4.278402277     1.296834465
 H       -5.766950813     3.171951566    -2.819238782
 H       -6.486933811     5.374610266    -3.541982723
 H       -5.608138600     2.109633130     0.839989798
 H       -5.170184750     1.381919590    -2.138016530
 H       -4.996635973     0.288240508     1.518261658
 H       -4.255852374    -1.918600049     2.209101808
 H       -3.670288876    -2.988874237    -1.967827862
 H       -4.408611688    -0.762837295    -2.614482631
 H       -8.265951666    10.860705118     7.906802313
 H       -9.558980340    12.043287151     8.216263804
 H       -8.949285188    10.617784119     5.529926376
 H      -10.321503353    10.327304190     6.596167768
 H      -11.140163654    12.717534098     6.173666824
 H       -9.739471700    12.992621138     5.109223990
 H        2.268385496    -1.027838101     0.065223405
 H        2.271224570     0.566418376     0.859426703
 H        2.277704091     0.453838173    -0.920169709
 H       -2.761996767    -5.463813481     2.801982377
 H       -4.086430663    -4.299577349     3.036642170
 H       -2.404249504    -3.721774602     2.890156399
 H       -5.588682136    -5.386929953     0.547057558
 H       -4.750205708    -5.524892347    -1.016553508
 H       -4.307543099    -6.606102431     0.329202029
 H       -0.931265311    -3.923278912     0.134418917
 H       -1.296234221    -5.668647627     0.115757354
 H       -1.765761179    -4.643997880    -1.263771540
 H       -9.482823793     6.976635801    -3.226338646
 H       -9.032845647     8.604017630    -3.792362419
 H       -8.140258553     7.178285792    -4.378906664
 H       -5.141000957     8.776643371    -1.877944657
 H       -5.542121925     8.399227774    -3.563124997
 H       -6.230177777     9.852438508    -2.794455707
 H       -1.802851965    13.655671754     0.434858204
 H       -1.995345939    13.674500850    -1.338713746
 H       -2.944385497    14.788887251    -0.326612859
 H       -5.912575068    11.919482060    -1.597214396
 H       -5.527513914    13.655088465    -1.723613458
 H       -4.571605348    12.460967852    -2.638430156
 H       -0.288763515    -0.365692500    -2.449853371
 H       -0.288545801    -1.916875966    -1.567504002
 H       -1.737316507    -0.877485655    -1.545744883
 H       -0.298150583    -0.354917297     2.449701159
 H       -1.713224067    -0.947903794     1.540641659
 H       -0.215644533    -1.912545820     1.586010039

