139   

Si        0.000000000     0.000000000     0.000000000
 C        1.868865502     0.000000000     0.000000000
 C       -0.592608084     1.746585699     0.000000000
 C       -0.225621888     2.595062149     1.051217620
 C       -0.658830000     3.918734898     1.076753072
 C       -1.445905859     4.432785854     0.041929679
 C       -1.807702599     3.584239279    -1.011100923
 C       -1.392761445     2.254156987    -1.029188946
 C       -1.919577665     5.812278147     0.031071391
 C       -1.653725006     6.711155435     0.993877949
 C       -2.123131267     8.091773901     0.990864827
 C       -1.771340528     8.925050544     2.061243285
 C       -2.196812519    10.250146036     2.100652602
 C       -2.990998331    10.770603170     1.071432238
 C       -3.343640584     9.940123461     0.002745921
 C       -2.911260943     8.615245118    -0.037041368
Si       -3.551772137    12.529011141     1.130108560
 C       -4.139651515    12.960829867    -0.549250426
 C       -3.633837219    13.934544327    -1.316703375
 C       -4.130730437    14.251996295    -2.657973938
 C       -3.525517586    15.294726770    -3.375057811
 C       -3.961624328    15.631555269    -4.647980142
 C       -5.027050746    14.924951268    -5.230389303
 C       -5.643656951    13.891474212    -4.514425125
 C       -5.203282876    13.568513110    -3.236709561
 N       -5.427699253    15.321857698    -6.544344472
 C       -4.466628379    14.895191031    -7.593950443
 C       -6.829463224    15.006757244    -6.870131204
 C       -3.735161321    13.558988202    -7.351505807
 C       -3.931882002    12.504413126    -8.453319512
 N       -5.232934374    11.805412275    -8.452338391
 C       -5.715031873    11.357534294    -7.208706275
 C       -4.823334329    10.730240803    -6.310214081
 C       -5.267686155    10.278540478    -5.078497765
 C       -6.607899275    10.429728728    -4.691506947
 C       -7.493171996    11.021384847    -5.595903035
 C       -7.071011960    11.452676981    -6.847458415
 C       -6.210497527    12.380645541    -9.387838112
 C       -7.041112087     9.939022815    -3.380005255
 C       -8.301714509    10.046925780    -2.940574252
Si       -8.985036048     9.486366387    -1.341222747
 C       -7.731347970     8.685616906    -0.253524315
 C       -7.495744934     7.310489835    -0.368485851
 C       -6.553090468     6.680996209     0.442213039
 C       -5.844905632     7.404734331     1.405725355
 C       -6.083838117     8.780211596     1.521416303
 C       -7.007196306     9.416855128     0.695204345
 C       -4.850432401     6.783361201     2.273644675
 C       -4.534469523     5.476979269     2.256177325
 C       -3.540746657     4.851441936     3.122216739
 C       -2.809751573     5.570670794     4.071128319
 C       -1.868870519     4.932352499     4.878940930
 C       -1.637253849     3.559664437     4.752341538
 C       -2.368929782     2.835301211     3.801478876
 C       -3.309413854     3.474613569     2.998424070
Si       -0.399003268     2.688486702     5.807135610
 C        0.381837769     3.870291744     7.026766624
 C       -1.260991888     1.313091468     6.733239394
 C        0.932295501     1.972947439     4.705387558
 C       -9.674848897    10.994365137    -0.472504954
 C      -10.373098410     8.283097935    -1.689828264
 C       -4.987317649    12.667215802     2.318312402
 C       -2.151787862    13.634561533     1.677401524
 C       -0.620671430    -0.917601351    -1.504980924
 C       -0.641576690    -0.837893531     1.544588207
 H        0.399080594     2.255582973     1.882583512
 H       -0.379668636     4.552294511     1.918621486
 H       -2.423634032     3.963659436    -1.824074065
 H       -1.712513653     1.636984204    -1.872220460
 H       -2.527445944     6.083962688    -0.836385802
 H       -1.052895399     6.432403200     1.865701568
 H       -1.155231624     8.535001409     2.868837569
 H       -1.887552472    10.854123045     2.957340159
 H       -3.960366830    10.290453598    -0.831391673
 H       -3.202161286     7.986810518    -0.877480730
 H       -4.985646082    12.344267318    -0.899154669
 H       -2.798079169    14.571279527    -1.000893017
 H       -2.699391713    15.848308399    -2.930324158
 H       -3.493370764    16.444124104    -5.199309058
 H       -6.461015468    13.322169630    -4.955275462
 H       -5.698877686    12.757729801    -2.698143062
 H       -7.103428561    15.539522095    -7.796110180
 H       -7.481870036    15.395351970    -6.067446495
 H       -7.039724356    13.933898869    -6.998252577
 H       -5.729667048    12.535110328   -10.369511966
 H       -6.639523477    13.339031972    -9.055649257
 H       -7.030866650    11.657808038    -9.551063640
 H       -3.781494756    10.595838430    -6.589488629
 H       -4.560022349     9.800236448    -4.398418327
 H       -8.545731757    11.138131912    -5.331185648
 H       -7.801465804    11.875093653    -7.529529679
 H       -6.239646576     9.474588705    -2.791817610
 H       -9.075352939    10.522414767    -3.569249368
 H       -8.027168512     6.687654711    -1.093521722
 H       -6.376356172     5.613510280     0.322204123
 H       -5.532366274     9.361738546     2.259329802
 H       -7.142471612    10.494591860     0.821274628
 H       -4.349748824     7.471307421     2.962003587
 H       -5.027516021     4.792482427     1.559626867
 H       -2.971341831     6.641154350     4.186384498
 H       -1.330106113     5.547497593     5.604096807
 H       -2.227140395     1.760949426     3.652856635
 H       -3.862577173     2.897358153     2.259267920
 H       -4.983540357    14.883943264    -8.575285752
 H       -3.713348330    15.717363629    -7.653776550
 H       -2.651143048    13.755781614    -7.237592043
 H       -4.031652005    13.120709659    -6.374402787
 H       -3.765609790    12.959219094    -9.453972388
 H       -3.147144547    11.715115907    -8.345570344
 H        2.271330643    -1.027950530    -0.002085772
 H        2.276069312     0.517143746     0.886769771
 H        2.267210225     0.515314568    -0.892984515
 H        1.127118192     3.355718587     7.658983284
 H       -0.372761839     4.311549938     7.701963032
 H        0.900976429     4.699564433     6.514496045
 H       -2.062779326     1.710655282     7.381748161
 H       -1.726555265     0.587476707     6.043084806
 H       -0.557333879     0.757746043     7.377378457
 H        1.439876349     2.763041007     4.123058286
 H        1.703554243     1.451978811     5.299521526
 H        0.514986186     1.242147169     3.989901619
 H       -8.905354296    11.776868169    -0.343041422
 H      -10.506590317    11.441989830    -1.043942279
 H      -10.062137063    10.733598099     0.528395562
 H      -10.030535971     7.432558392    -2.305426608
 H      -10.786985968     7.871467441    -0.751784965
 H      -11.201334390     8.769938111    -2.233762518
 H       -5.825201746    12.010313833     2.022479539
 H       -4.688225742    12.382590677     3.342483513
 H       -5.373839232    13.701295957     2.358330544
 H       -1.275748320    13.530665981     1.011013325
 H       -2.452292756    14.697618039     1.670964158
 H       -1.816861182    13.392569483     2.701056628
 H       -0.262660995    -0.450516624    -2.439790638
 H       -0.270463903    -1.965235638    -1.505485228
 H       -1.724238248    -0.938876068    -1.541115541
 H       -0.282564332    -0.333891988     2.459394851
 H       -1.746303443    -0.827880747     1.572607151
 H       -0.316346340    -1.891524483     1.594078818

