139   

Si        0.000000000     0.000000000     0.000000000
 C        1.868758192     0.000000000     0.000000000
 C       -0.649580146     1.727229953     0.000000000
 C        0.140514663     2.803225245    -0.416842336
 C       -0.367242142     4.102673076    -0.410193195
 C       -1.678953878     4.351961245    -0.000101760
 C       -2.470670366     3.271980631     0.413322370
 C       -1.963733357     1.975780987     0.416613408
 C       -2.260902071     5.688765003     0.026802081
 C       -1.627861105     6.819491739    -0.329285611
 C       -2.242265475     8.143004565    -0.289774402
 C       -1.494265974     9.260262987    -0.682861985
 C       -2.049336467    10.538335675    -0.657581312
 C       -3.381717706    10.724999063    -0.269588867
 C       -4.134116564     9.608192987     0.111319293
 C       -3.569413155     8.334412633     0.105037153
Si       -4.145956095    12.401367645    -0.225316147
 C       -3.847740373    13.409979716    -1.722099765
 C       -3.156442611    13.083469547    -2.820879350
 C       -2.989545266    13.989931088    -3.962858463
 C       -2.246276928    13.557321393    -5.071676971
 C       -2.063539909    14.381291466    -6.172088768
 C       -2.654990318    15.654612828    -6.198466825
 C       -3.402284152    16.093961654    -5.100740801
 C       -3.554349457    15.267573865    -3.991670277
 N       -2.415585991    16.441755379    -7.373908475
 C       -3.355882109    16.093264656    -8.462963405
 C       -2.331627703    17.891957727    -7.125138533
 C       -4.805107087    16.574885969    -8.246205545
 C       -5.807568728    15.806186198    -9.129043932
 N       -6.515817017    14.696428350    -8.452117916
 C       -5.646828558    13.666686716    -7.991694332
 C       -4.925861381    12.948968173    -8.965320264
 C       -4.063430760    11.934458467    -8.582403496
 C       -3.912988723    11.586829321    -7.231797925
 C       -4.657089821    12.281500333    -6.274999109
 C       -5.531050386    13.297848030    -6.645061919
 C       -7.505640374    15.175837118    -7.471239161
 C       -2.988059628    10.506735635    -6.880827022
 C       -2.762962475    10.088747370    -5.628424687
Si       -1.613226131     8.742011571    -5.161143832
 C       -2.530624054     7.398341449    -4.299690097
 C       -3.767153655     7.636287810    -3.688486940
 C       -4.443913995     6.604198013    -3.042027560
 C       -3.898585542     5.315739692    -2.986289476
 C       -2.660178397     5.083835879    -3.592359406
 C       -1.980512685     6.113338435    -4.239563496
 C       -4.636152094     4.259519957    -2.300405582
 C       -4.200207997     2.993205526    -2.191458727
 C       -4.908443662     1.913474471    -1.515027141
 C       -6.146694689     2.088783712    -0.893644847
 C       -6.780965107     1.019522076    -0.260027827
 C       -6.183153593    -0.243528523    -0.224950891
 C       -4.941000698    -0.422410408    -0.849427410
 C       -4.317672024     0.642328780    -1.492013622
Si       -6.994864200    -1.677928745     0.604302002
 C       -8.495410444    -1.125168061     1.571351066
 C       -7.511092761    -2.906858153    -0.704854675
 C       -5.765658203    -2.464897429     1.773958255
 C       -0.754875533     8.049061840    -6.670520433
 C       -0.346043407     9.472746025    -3.997621380
 C       -6.002775385    12.260808654    -0.038688453
 C       -3.426903447    13.314753199     1.238753229
 C       -0.632211457    -0.863545641    -1.533923241
 C       -0.618101764    -0.895041930     1.520730207
 H        1.171628566     2.668950172    -0.752726988
 H        0.267756878     4.924550742    -0.734588027
 H       -3.498768164     3.443031307     0.730899067
 H       -2.632872645     1.175440288     0.748729890
 H       -3.301349512     5.720283749     0.368063266
 H       -0.594292838     6.798362310    -0.681956146
 H       -0.460142268     9.129413557    -0.997230060
 H       -1.411024607    11.375527689    -0.955005253
 H       -5.179992895     9.686933155     0.420797101
 H       -4.177591962     7.483341645     0.407200436
 H       -4.326215897    14.403034771    -1.639906298
 H       -2.664378331    12.110874334    -2.951301530
 H       -1.793958457    12.563404789    -5.070284020
 H       -1.472905113    14.048241207    -7.024885501
 H       -3.861103670    17.077970882    -5.104686557
 H       -4.132640599    15.629926291    -3.141771023
 H       -1.963791965    18.381095531    -8.043685790
 H       -1.586089576    18.076517896    -6.331757984
 H       -3.277779354    18.369437231    -6.832072677
 H       -8.228449700    15.829647810    -7.989100170
 H       -7.077873015    15.733140679    -6.623518072
 H       -8.073255604    14.313338469    -7.078457544
 H       -5.054941937    13.191421143   -10.017481553
 H       -3.503450908    11.394059611    -9.345282320
 H       -4.566194877    12.026115217    -5.216326973
 H       -6.088500089    13.820751651    -5.873377215
 H       -2.490856229    10.064691671    -7.753996886
 H       -3.285620420    10.548649689    -4.772728419
 H       -4.240107086     8.623114204    -3.697335031
 H       -5.405131996     6.806357222    -2.574167852
 H       -2.210284826     4.092793366    -3.555698979
 H       -1.014871901     5.870074148    -4.690646397
 H       -5.593231994     4.565427384    -1.871604529
 H       -3.236310497     2.700605224    -2.623157378
 H       -6.629350214     3.064001805    -0.902665057
 H       -7.751229286     1.214078889     0.204020728
 H       -4.427955748    -1.388093935    -0.856284332
 H       -3.356687637     0.488501573    -1.981861242
 H       -2.944866821    16.519139080    -9.404099077
 H       -3.336440377    14.983520947    -8.581594196
 H       -5.077087304    16.456054451    -7.178834668
 H       -4.875458798    17.656804699    -8.453585399
 H       -6.581452153    16.504217653    -9.520643502
 H       -5.298197672    15.388997162   -10.026468027
 H        2.268266669    -1.026940643     0.073702517
 H        2.269760115     0.572776533     0.855659567
 H        2.278239531     0.447060830    -0.922565007
 H       -8.951611290    -1.971117362     2.116059026
 H       -9.272380514    -0.702157359     0.910244761
 H       -8.233104758    -0.354574809     2.318137131
 H       -8.238061097    -2.460803838    -1.407747746
 H       -6.647320303    -3.251528907    -1.300609860
 H       -7.984881524    -3.797590254    -0.256307680
 H       -5.420209778    -1.742027049     2.535251709
 H       -6.213470273    -3.321463309     2.307728617
 H       -4.873742922    -2.835763929     1.239192526
 H       -1.475872838     7.558460131    -7.349561635
 H       -0.241851068     8.842121781    -7.242602600
 H        0.004829775     7.296481455    -6.397402287
 H       -0.834787193     9.956114456    -3.131107028
 H        0.334310769     8.695888683    -3.608064523
 H        0.269795638    10.236531413    -4.504474476
 H       -6.444351780    11.667066446    -0.859845097
 H       -6.280155793    11.777897475     0.914348762
 H       -6.483666151    13.254750454    -0.054671033
 H       -2.335664789    13.451508333     1.129791774
 H       -3.878265852    14.314970237     1.356465952
 H       -3.596752605    12.757311347     2.177449749
 H       -0.360205452    -0.307891111    -2.449043690
 H       -0.208943854    -1.879232583    -1.622928433
 H       -1.732398824    -0.962243734    -1.517180008
 H       -0.305692099    -0.373568745     2.443701328
 H       -1.720554095    -0.962079190     1.535973467
 H       -0.221552712    -1.924036570     1.569520353

