139   

Si        0.000000000     0.000000000     0.000000000
 C        1.868962893     0.000000000     0.000000000
 C       -0.635761215     1.731923128     0.000000000
 C        0.076186928     2.753766583    -0.637887388
 C       -0.406087108     4.062005741    -0.636690062
 C       -1.608143659     4.377404630     0.002193812
 C       -2.320613143     3.352622006     0.638879869
 C       -1.842916796     2.044759407     0.636784490
 C       -2.155802119     5.728603228     0.032571468
 C       -1.587722132     6.806664203    -0.534291741
 C       -2.159697915     8.148457672    -0.487581524
 C       -1.485964991     9.206160914    -1.112188294
 C       -2.004984146    10.498862214    -1.086025065
 C       -3.230409704    10.757869073    -0.459946920
 C       -3.911690983     9.699399519     0.150848559
 C       -3.381769157     8.410835768     0.137171960
Si       -3.942330694    12.456908900    -0.409085961
 C       -4.375502531    13.117198524    -2.056921607
 C       -4.239563695    12.528881518    -3.252755204
 C       -4.630087249    13.175097402    -4.509409691
 C       -4.458730382    12.498803384    -5.723279884
 C       -4.819257191    13.085097095    -6.929638368
 C       -5.462881180    14.335698582    -6.953918461
 C       -5.657068073    15.008787720    -5.729642267
 C       -5.221392911    14.443697026    -4.541228310
 N       -5.851960336    14.978909080    -8.146341284
 C       -5.680732696    14.274589411    -9.423648887
 C       -7.109962016    15.746307230    -8.070209170
 C       -6.621781268    13.075553989    -9.636509329
 C       -6.472382930    12.438732409   -11.031393254
 N       -5.099863555    12.074492924   -11.451320449
 C       -4.277983162    11.572247650   -10.409420413
 C       -4.716858149    10.424041870    -9.721522023
 C       -3.951300156     9.893057860    -8.695540680
 C       -2.738867736    10.489525402    -8.317270649
 C       -2.298497173    11.614578337    -9.018364026
 C       -3.039599245    12.139358384   -10.070497182
 C       -4.481534854    13.077118019   -12.335514860
 C       -1.962811391     9.894392013    -7.227900424
 C       -0.795602187    10.384835561    -6.791084014
Si        0.203038290     9.670585613    -5.433996824
 C       -0.639584586     8.176350321    -4.760507770
 C       -1.933167295     8.272417867    -4.233655397
 C       -2.573820961     7.144434388    -3.723313575
 C       -1.945945462     5.895805256    -3.748181286
 C       -0.654738011     5.801266265    -4.282390010
 C       -0.006704607     6.928640247    -4.779964629
 C       -2.567887169     4.684264921    -3.229223492
 C       -3.795596204     4.614956018    -2.688150860
 C       -4.388786107     3.383374269    -2.177355308
 C       -3.713289204     2.159124461    -2.212310872
 C       -4.308801399     1.002225522    -1.716063316
 C       -5.587562933     1.048846402    -1.147547064
 C       -6.261305532     2.273755026    -1.100997483
 C       -5.668628606     3.427128846    -1.612131401
Si       -6.338530505    -0.507283144    -0.502659920
 C       -5.161080714    -1.250997067     0.746960272
 C       -7.980854235    -0.164712917     0.320465284
 C       -6.586671501    -1.687753962    -1.929603445
 C        1.902173094     9.258823499    -6.089215239
 C        0.333178793    10.946819975    -4.074198513
 C       -5.496219847    12.491097542     0.632394580
 C       -2.663168744    13.593104461     0.349722985
 C       -0.632573572    -0.852947573    -1.539817231
 C       -0.617729266    -0.907716266     1.513480695
 H        1.023284830     2.568274598    -1.150872346
 H        0.162348566     4.841091279    -1.141848525
 H       -3.264305890     3.575564092     1.134098575
 H       -2.447732993     1.287869790     1.144033041
 H       -3.104895149     5.818782836     0.570770752
 H       -0.644181363     6.724142126    -1.080576276
 H       -0.541309203     9.016655934    -1.620468968
 H       -1.427657268    11.288598105    -1.575491025
 H       -4.873787664     9.837011270     0.651824445
 H       -3.932771845     7.606036803     0.620867767
 H       -4.797622833    14.135674649    -1.982341254
 H       -3.826130904    11.520373444    -3.380810770
 H       -4.002138614    11.505944991    -5.734885237
 H       -4.608287631    12.548129711    -7.852878505
 H       -6.124620464    15.988346835    -5.712223160
 H       -5.359736437    15.002205524    -3.614387878
 H       -7.457332848    16.028360265    -9.076482373
 H       -6.922427486    16.685773827    -7.518772984
 H       -7.921133420    15.196838052    -7.565737805
 H       -5.133502940    13.225209791   -13.214197410
 H       -3.521983943    12.683856285   -12.717210534
 H       -4.302062372    14.055548075   -11.864826305
 H       -5.654243250     9.952852007   -10.007156643
 H       -4.300146825     9.000438383    -8.174358682
 H       -1.356280509    12.093371474    -8.747142941
 H       -2.657213186    13.005267005   -10.602772209
 H       -2.428714446     8.994046435    -6.802418099
 H       -0.351810989    11.287962944    -7.239462531
 H       -2.474342552     9.223454441    -4.187296762
 H       -3.572200844     7.244867272    -3.299538527
 H       -0.150073670     4.837468850    -4.309812146
 H        1.000882056     6.793469677    -5.181358434
 H       -1.943959910     3.786551364    -3.300498284
 H       -4.424359663     5.504694106    -2.602203023
 H       -2.707964550     2.100655777    -2.628602371
 H       -3.734805023     0.073481412    -1.781652578
 H       -7.260364148     2.368603860    -0.668766149
 H       -6.208635815     4.370951968    -1.569038148
 H       -5.819923150    15.018411455   -10.241195247
 H       -4.614131808    13.951395999    -9.484523811
 H       -6.437998574    12.311716756    -8.853348998
 H       -7.672302105    13.389240830    -9.492341305
 H       -7.069369520    11.494781950   -11.061081777
 H       -6.918621916    13.107254453   -11.799024129
 H        2.269404492    -1.026331659     0.074631597
 H        2.268393300     0.574452761     0.855589347
 H        2.279380146     0.448217770    -0.921445592
 H       -5.581782997    -2.165042815     1.200502178
 H       -4.947481339    -0.539584260     1.565197907
 H       -4.196109431    -1.521935146     0.282597261
 H       -7.874219115     0.551902543     1.154130937
 H       -8.710963574     0.256831437    -0.393157284
 H       -8.421112557    -1.089632638     0.733508529
 H       -5.635332407    -1.905188578    -2.446787729
 H       -7.009783469    -2.648764761    -1.588906147
 H       -7.279703737    -1.266433640    -2.680339738
 H        1.849927338     8.519411674    -6.908834821
 H        2.406339336    10.155954042    -6.490699058
 H        2.551555314     8.841410395    -5.299873584
 H       -0.668268516    11.245549100    -3.709943927
 H        0.903793051    10.559007935    -3.212135305
 H        0.841340838    11.861244662    -4.427627496
 H       -6.292971899    11.867636316     0.188666369
 H       -5.305587566    12.121155564     1.655079523
 H       -5.894190570    13.517607761     0.720778706
 H       -1.751489834    13.644335542    -0.271913512
 H       -3.049496436    14.621121616     0.459188894
 H       -2.362727312    13.239168663     1.352097350
 H       -0.314890755    -0.320143535    -2.453784600
 H       -0.253732798    -1.887459052    -1.607917560
 H       -1.736279991    -0.900570190    -1.549077218
 H       -0.329153429    -0.379606857     2.440277415
 H       -1.717976390    -1.003556647     1.513135046
 H       -0.196724590    -1.926893366     1.567859840

