139   

Si        0.000000000     0.000000000     0.000000000
 C        1.869880610     0.000000000     0.000000000
 C       -0.651097614     1.726913581     0.000000000
 C        0.183622350     2.820072248     0.250626615
 C       -0.327310468     4.117548928     0.246255651
 C       -1.681978410     4.352920031    -0.003850353
 C       -2.517493462     3.255615364    -0.251312237
 C       -2.010706105     1.958709766    -0.248428966
 C       -2.255452470     5.695088172    -0.017250517
 C       -1.552435523     6.818193698     0.205224723
 C       -2.100200305     8.169693540     0.197598135
 C       -1.225726045     9.234737663     0.449624610
 C       -1.688439598    10.545643848     0.455779211
 C       -3.041471147    10.825082830     0.221632385
 C       -3.916793283     9.765569687    -0.028026101
 C       -3.447689007     8.450510745    -0.043276219
Si       -3.566107230    12.588766495     0.248288358
 C       -5.376374139    12.800911504     0.418513011
 C       -6.139275494    13.427612214    -0.486504493
 C       -7.587386226    13.606376323    -0.366804951
 C       -8.261712672    14.285984162    -1.395201739
 C       -9.629782778    14.485032674    -1.336955718
 C      -10.359956790    14.038845009    -0.217437470
 C       -9.693714619    13.357272810     0.809316233
 C       -8.323596077    13.126924317     0.717163754
 N      -11.761547190    14.279121832    -0.229386385
 C      -12.128710099    15.709185913    -0.182829304
 C      -12.561659362    13.434840172     0.671517604
 C      -12.062721134    16.389296286     1.199966027
 C      -10.625195094    16.734004132     1.637952713
 N      -10.067956979    17.819233000     0.809150976
 C       -8.690488895    17.831732070     0.532570469
 C       -7.868040664    16.709360702     0.753911701
 C       -6.512173114    16.755294595     0.470164324
 C       -5.919797959    17.906535267    -0.066099282
 C       -6.739979778    19.011931335    -0.312445056
 C       -8.100070044    18.980115112    -0.037810797
 C      -10.673590792    19.133207553     1.094671615
 C       -4.483234309    17.903063524    -0.347730193
 C       -3.814645214    18.945873557    -0.859480965
Si       -2.021563908    18.988822332    -1.228238939
 C       -1.244998085    17.372239504    -0.791944862
 C       -0.943960549    17.060510717     0.540208387
 C       -0.357991809    15.839288781     0.864226457
 C       -0.027218858    14.914110182    -0.134866318
 C       -0.322544252    15.231340360    -1.463441354
 C       -0.933042985    16.441945969    -1.788414556
 C        0.585450721    13.646308677     0.249368467
 C        0.922467304    12.672731340    -0.613764483
 C        1.535223488    11.401822213    -0.240868239
 C        1.837194030    11.068586303     1.083101773
 C        2.422769868     9.841920133     1.392260458
 C        2.680322455     8.901780966     0.387231789
 C        2.363672703     9.226959858    -0.936586014
 C        1.802589482    10.464013539    -1.246104117
Si        3.456845918     7.282621948     0.818577284
 C        2.549022955     6.554358362     2.282605187
 C        3.316985471     6.092754059    -0.616346014
 C        5.252447442     7.565581909     1.242087859
 C       -1.799808614    19.351884543    -3.048547613
 C       -1.226212093    20.350382771    -0.224491447
 C       -2.792619868    13.462743692     1.708798346
 C       -2.981499594    13.350184824    -1.353770943
 C       -0.607421175    -0.885382679    -1.530352094
 C       -0.625414031    -0.868839192     1.531655311
 H        1.251304058     2.700737023     0.453174110
 H        0.345067573     4.951691233     0.442486231
 H       -3.575857870     3.416100514    -0.448063767
 H       -2.710991209     1.142894842    -0.447670313
 H       -3.327446042     5.737530232    -0.225564350
 H       -0.477830914     6.768183183     0.411598725
 H       -0.167757003     9.041663594     0.634519823
 H       -0.953545135    11.334671911     0.652655943
 H       -4.981154044     9.929223215    -0.218335327
 H       -4.145603990     7.640294907    -0.243768449
 H       -5.806760353    12.373279355     1.336289115
 H       -5.730483604    13.863242221    -1.409898340
 H       -7.702627828    14.661310832    -2.253410117
 H      -10.147859677    14.992711676    -2.148600762
 H      -10.236421172    12.997077428     1.677199104
 H       -7.824400047    12.578408303     1.516426850
 H      -13.631044198    13.595150715     0.450848455
 H      -12.396565179    13.618092720     1.744254038
 H      -12.340152542    12.373515480     0.459008404
 H      -11.663639141    19.024328634     1.564036941
 H      -10.823298436    19.671972761     0.141029308
 H      -10.051837773    19.754857088     1.761171094
 H       -8.285271406    15.785882871     1.153608303
 H       -5.901819166    15.868743123     0.662653494
 H       -6.311316755    19.919752835    -0.738391835
 H       -8.702374968    19.851923404    -0.269646652
 H       -3.994863932    16.949564143    -0.098648648
 H       -4.331735505    19.887835893    -1.100213338
 H       -1.165474490    17.749731680     1.360195066
 H       -0.145373868    15.608940088     1.906462280
 H       -0.072431127    14.534189259    -2.261603756
 H       -1.148136609    16.627645838    -2.844676106
 H        0.770411482    13.531034517     1.321262624
 H        0.742269025    12.792563983    -1.686776596
 H        1.629830828    11.774574827     1.885289561
 H        2.653996623     9.646143823     2.443059491
 H        2.537055438     8.531295600    -1.762626868
 H        1.564451370    10.698337978    -2.282484326
 H      -11.474869292    16.269575325    -0.893830357
 H      -13.165101277    15.786067006    -0.584131674
 H      -12.681628828    17.306276613     1.167391434
 H      -12.525641485    15.744553050     1.969232259
 H      -10.613529532    17.007789981     2.716454063
 H       -9.998063517    15.816227769     1.541466808
 H        2.266980263    -1.029745128    -0.047372246
 H        2.277726645     0.468259569     0.913033599
 H        2.271973589     0.549595038    -0.869819724
 H        2.935375524     5.551157772     2.535775339
 H        1.466821224     6.452418069     2.079804520
 H        2.654958931     7.185924575     3.182081150
 H        2.264702984     5.948665702    -0.924464652
 H        3.876415107     6.450151529    -1.498660376
 H        3.722604891     5.099659384    -0.352161099
 H        5.364240015     8.264992914     2.089660106
 H        5.755521493     6.622866973     1.520185464
 H        5.804406939     7.996747559     0.387336388
 H       -2.336546734    18.619548756    -3.677732833
 H       -2.189873762    20.352620468    -3.306500378
 H       -0.733647492    19.327197964    -3.335786185
 H       -1.401638188    20.213007836     0.857345541
 H       -0.133498316    20.377075058    -0.384804854
 H       -1.628631769    21.340885632    -0.500920757
 H       -3.077569441    12.986102349     2.662300274
 H       -1.690152746    13.452795884     1.642952324
 H       -3.109883882    14.520987621     1.750993883
 H       -3.529710231    12.941648070    -2.220552372
 H       -3.107613370    14.448653752    -1.353615996
 H       -1.907584152    13.140890924    -1.513829415
 H       -0.275036810    -0.367862278    -2.448620120
 H       -0.224227905    -1.920087406    -1.573905035
 H       -1.709892724    -0.937426075    -1.561035249
 H       -0.279293919    -0.360505791     2.449804117
 H       -1.729499950    -0.886944206     1.562330772
 H       -0.272188856    -1.913963374     1.574934670

