139   

Si        0.000000000     0.000000000     0.000000000
 C        1.869020371     0.000000000     0.000000000
 C       -0.658360535     1.724621781     0.000000000
 C        0.184012676     2.831636348     0.137634731
 C       -0.337824923     4.125463836     0.134595881
 C       -1.711364233     4.341292168    -0.002518473
 C       -2.554785627     3.230109134    -0.138230909
 C       -2.036942947     1.937958004    -0.136690280
 C       -2.302389455     5.675508391    -0.011269190
 C       -1.608866885     6.820299456     0.108713555
 C       -2.200469289     8.154290139     0.099892419
 C       -3.575183687     8.367540271    -0.037451076
 C       -4.098570885     9.659815993    -0.040717286
 C       -3.255112475    10.767257130     0.094246081
 C       -1.877587140    10.557919096     0.232606790
 C       -1.358318275     9.265814777     0.235429723
Si       -3.940413047    12.479376857     0.090785449
 C       -2.600301636    13.603968609    -0.450748067
 C       -2.090089617    14.619727169     0.257299903
 C       -1.015107113    15.489620127    -0.227207988
 C       -0.555402628    16.525785134     0.598944182
 C        0.459208743    17.372950624     0.182294386
 C        1.033327103    17.212354215    -1.093220363
 C        0.590578009    16.167794567    -1.915559647
 C       -0.404048088    15.304576238    -1.470116052
 N        2.070800055    18.113350211    -1.462813063
 C        1.642523193    19.525146626    -1.554965918
 C        2.894038285    17.695378332    -2.611251828
 C        0.608774172    19.815636066    -2.659932127
 C       -0.822385403    19.908705044    -2.095132109
 N       -1.897489172    19.705494335    -3.091402624
 C       -2.040649421    18.320269559    -3.441081556
 C       -2.873317159    17.560701416    -2.603313909
 C       -3.070090840    16.213845425    -2.864706863
 C       -2.452756583    15.596118127    -3.963868124
 C       -1.638132899    16.364462787    -4.798593844
 C       -1.437681953    17.719602881    -4.550584559
 C       -1.794830098    20.610388435    -4.250054010
 C       -2.696480858    14.168453500    -4.192305050
 C       -2.166456632    13.468730838    -5.203124248
Si       -2.441015064    11.685421315    -5.529819903
 C       -3.203739055    11.512269113    -7.199270365
 C       -3.874285687    12.590074843    -7.789978764
 C       -4.449700128    12.456924101    -9.051243599
 C       -4.376112678    11.243871280    -9.748221665
 C       -3.710190993    10.168313600    -9.153059734
 C       -3.130729272    10.299062140    -7.891620357
 C       -4.994540034    11.153469960   -11.066994861
 C       -4.993514274    10.053301187   -11.838651661
 C       -5.612015403     9.963220773   -13.157348899
 C       -6.277867682    11.037727789   -13.753108882
 C       -6.854905552    10.907264643   -15.016050780
 C       -6.770896400     9.699370679   -15.715947987
 C       -6.103255765     8.620750254   -15.121372677
 C       -5.534757475     8.751543001   -13.856945261
Si       -7.530541640     9.513953122   -17.388401871
 C       -7.733394163    11.186481990   -18.198653000
 C       -6.431698424     8.450147610   -18.463805653
 C       -9.201902927     8.702839571   -17.188659888
 C       -0.773702249    10.842790850    -5.484849156
 C       -3.560914922    10.901591435    -4.260722010
 C       -5.339241730    12.627245080    -1.139365563
 C       -4.550370429    12.891592592     1.805004008
 C       -0.610599205    -0.880780130    -1.531545733
 C       -0.622111303    -0.872092506     1.531192917
 H        1.266640822     2.726278392     0.249429249
 H        0.340182554     4.970481861     0.241569758
 H       -3.628070765     3.376245862    -0.246173180
 H       -2.743824578     1.110668611    -0.246378486
 H       -3.390324787     5.692637577    -0.126080785
 H       -0.521067359     6.803111993     0.224447071
 H       -4.250981442     7.521034636    -0.144127922
 H       -5.181056971     9.764105874    -0.153813150
 H       -1.171900942    11.389253713     0.339215787
 H       -0.284853416     9.120948001     0.344245332
 H       -2.215470731    13.367688430    -1.458764078
 H       -2.444519019    14.883939070     1.261549771
 H       -0.999790485    16.669346291     1.583548995
 H        0.823928538    18.157655652     0.841043130
 H        1.006613568    16.025802209    -2.908901134
 H       -0.724681888    14.489511890    -2.124098162
 H        3.787613929    18.342122778    -2.656596476
 H        2.381235203    17.742558936    -3.584336862
 H        3.250075409    16.662513738    -2.448634748
 H       -1.847826712    21.650972356    -3.886520882
 H       -2.666507971    20.445107218    -4.907753507
 H       -0.880601773    20.497769977    -4.850418956
 H       -3.352858392    18.039801988    -1.750510290
 H       -3.710359934    15.629689564    -2.201937764
 H       -1.153072573    15.907275622    -5.661268360
 H       -0.807983283    18.301009287    -5.217227855
 H       -3.377295752    13.722410421    -3.454674182
 H       -1.491944986    13.946660061    -5.932750258
 H       -3.965653360    13.560438627    -7.290508692
 H       -4.963766551    13.306733144    -9.496769740
 H       -3.639200457     9.214891855    -9.673341704
 H       -2.622810436     9.423355099    -7.477673567
 H       -5.481053619    12.072377988   -11.407558382
 H       -4.507389952     9.134272880   -11.497993414
 H       -6.352976121    11.990519107   -13.231835734
 H       -7.364488524    11.782474498   -15.428457734
 H       -6.005867021     7.652715301   -15.620558535
 H       -5.022437791     7.901160230   -13.410511361
 H        1.250373685    19.831960755    -0.559635632
 H        2.557710836    20.138152937    -1.719318643
 H        0.868646628    20.752685138    -3.182360487
 H        0.649697792    19.021562707    -3.431215669
 H       -0.963334953    19.153285283    -1.285662936
 H       -0.989730101    20.905355788    -1.630844965
 H        2.266506918    -1.030227141    -0.036328391
 H        2.276242306     0.478059199     0.908597976
 H        2.272925947     0.540438177    -0.874795264
 H       -8.114088410    11.085939102   -19.230703690
 H       -6.770061943    11.725250203   -18.251954818
 H       -8.444616247    11.825444121   -17.646392226
 H       -5.409410439     8.865920067   -18.523840222
 H       -6.349170114     7.420719823   -18.073689049
 H       -6.824178710     8.382929580   -19.493905008
 H       -9.870078015     9.310908979   -16.552351103
 H       -9.702173431     8.565849252   -18.163331447
 H       -9.112990484     7.708539412   -16.715356904
 H       -0.104981204    11.224911924    -6.276275983
 H       -0.269903300    11.006874624    -4.514267592
 H       -0.867607178     9.751832133    -5.627488807
 H       -4.533273580    11.421306992    -4.195523064
 H       -3.771017898     9.845414241    -4.510471625
 H       -3.097942708    10.910218293    -3.255997606
 H       -5.034324845    12.283883021    -2.145170625
 H       -6.211181437    12.023030349    -0.833879234
 H       -5.680079453    13.674398416    -1.232982024
 H       -3.737393682    12.817936221     2.550402113
 H       -4.959904630    13.916039158     1.854931858
 H       -5.348772144    12.198274795     2.124970213
 H       -0.279935179    -0.361144227    -2.449298169
 H       -0.228645089    -1.915779312    -1.578988629
 H       -1.713251595    -0.931068931    -1.560212730
 H       -0.275402804    -0.364179819     2.449578073
 H       -1.725910452    -0.893664163     1.564143009
 H       -0.265915603    -1.916383513     1.572942763

