139   

Si        0.000000000     0.000000000     0.000000000
 C        1.869098563     0.000000000     0.000000000
 C       -0.657598856     1.724832570     0.000000000
 C        0.183245913     2.830205568    -0.158596740
 C       -0.337274289     4.124570826    -0.155199504
 C       -1.707848316     4.342824135     0.005573982
 C       -2.549776762     3.233284868     0.162644611
 C       -2.033425003     1.940547104     0.158832037
 C       -2.297717446     5.677567091     0.015709899
 C       -1.605958884     6.821103549    -0.125107104
 C       -2.197593042     8.155157766    -0.114717983
 C       -1.358206810     9.266279220    -0.272428354
 C       -1.877719238    10.558332408    -0.269046926
 C       -3.253500721    10.768303346    -0.114175854
 C       -4.093795839     9.661359142     0.043052117
 C       -3.569357460     8.369294409     0.045478024
Si       -3.947151781    12.478371981    -0.108976035
 C       -5.739813104    12.370487470    -0.470136708
 C       -6.723707318    12.790239893     0.335970398
 C       -8.148058517    12.687506039     0.013334086
 C       -9.090203110    13.161880507     0.937119460
 C      -10.449186080    13.087527888     0.678915569
 C      -10.920707558    12.481302961    -0.505577713
 C       -9.975333168    12.002614947    -1.432208697
 C       -8.615444131    12.127995094    -1.178924515
 N      -12.304386391    12.412501934    -0.755452564
 C      -13.184657265    12.244113263     0.415424041
 C      -12.734090327    11.598702387    -1.905752966
 C      -12.932103896    10.930066382     1.171480882
 C      -13.842823705    10.831185441     2.405510024
 N      -13.706900306     9.549066758     3.120931128
 C      -14.055672489     8.384506064     2.410178656
 C      -15.087804778     8.427696492     1.448303067
 C      -15.439554226     7.288362768     0.742987391
 C      -14.819431339     6.056720888     0.997444943
 C      -13.819447967     6.008523830     1.972314714
 C      -13.442704665     7.145308229     2.676051279
 C      -12.483561501     9.486683000     3.939504997
 C      -15.230096175     4.885269751     0.222436493
 C      -14.712548506     3.658984201     0.374257044
Si      -15.216239468     2.183752465    -0.588036324
 C      -16.537894637     2.635913366    -1.793543493
 C      -17.758078029     3.138714925    -1.319958583
 C      -18.770644432     3.486993671    -2.208922656
 C      -18.590681075     3.346368479    -3.591952466
 C      -17.373150289     2.846793789    -4.060784314
 C      -16.356770952     2.494830057    -3.172028425
 C      -19.681910108     3.725091170    -4.483669317
 C      -19.639761654     3.638126075    -5.824028212
 C      -20.731026188     4.016857677    -6.715838906
 C      -21.949278738     4.516706398    -6.247149535
 C      -22.965456657     4.866324946    -7.135634076
 C      -22.782050963     4.732174872    -8.516216510
 C      -21.562068995     4.232329729    -8.988283191
 C      -20.551781389     3.876117640    -8.098179307
Si      -24.128127651     5.195337929    -9.692233363
 C      -25.140697791     6.598134651    -8.983500896
 C      -23.395882914     5.741192843   -11.323423026
 C      -25.216433436     3.699894692    -9.956845019
 C      -13.710084035     1.514219273    -1.468039647
 C      -15.883281396     0.890637933     0.584087249
 C       -3.621950156    13.248932856     1.560099268
 C       -3.146245264    13.500275346    -1.452396303
 C       -0.622305282    -0.871901080    -1.531190735
 C       -0.610148452    -0.881579193     1.531375575
 H        1.263717293     2.723049659    -0.287835645
 H        0.339450526     4.968080030    -0.280270718
 H       -3.620831387     3.381150556     0.288997222
 H       -2.739136239     1.114631384     0.284604162
 H       -3.383391351     5.696143793     0.150440834
 H       -0.520537822     6.802728387    -0.260153233
 H       -0.287096336     9.120790525    -0.398672757
 H       -1.175063798    11.386411860    -0.394918214
 H       -5.176672719     9.767806395     0.169209964
 H       -4.243450963     7.523867543     0.171747319
 H       -5.962789876    11.917177588    -1.449940338
 H       -6.533979192    13.248415605     1.315552115
 H       -8.750357625    13.609932326     1.871439787
 H      -11.149692003    13.498511680     1.400023624
 H      -10.292512945    11.534033225    -2.358613923
 H       -7.905094319    11.762550455    -1.922843053
 H      -13.832220353    11.639302731    -2.003835761
 H      -12.431964547    10.540695975    -1.833944463
 H      -12.316114129    12.030243166    -2.833167164
 H      -12.316269348    10.455284303     4.439988957
 H      -11.579632524     9.235398466     3.360381377
 H      -12.619507539     8.735206265     4.738197731
 H      -15.611886951     9.357621809     1.247953248
 H      -16.223392591     7.350810857    -0.013385644
 H      -13.320252982     5.063430493     2.191145287
 H      -12.660318013     7.060772779     3.423531774
 H      -16.015827344     5.109496175    -0.514091973
 H      -13.923478104     3.459742472     1.115507112
 H      -17.955704642     3.270409955    -0.251243291
 H      -19.712540415     3.872884068    -1.823283353
 H      -17.206735500     2.727370166    -5.129808824
 H      -15.426402026     2.110183885    -3.598749359
 H      -20.576717074     4.099970490    -3.977988284
 H      -18.745531084     3.262250521    -6.330135601
 H      -22.115591218     4.635953028    -5.177966842
 H      -23.896772581     5.248748854    -6.708578217
 H      -21.361452826     4.106031916   -10.055814423
 H      -19.611724078     3.486661022    -8.484853572
 H      -13.046237086    13.119471024     1.090009453
 H      -14.241550005    12.298146079     0.068850098
 H      -13.101994960    10.064308432     0.501482865
 H      -11.868766046    10.861205436     1.473288061
 H      -13.622441471    11.655886369     3.120406254
 H      -14.911147463    10.962725528     2.118629624
 H        2.266624650    -1.029900233     0.043307063
 H        2.273001148     0.546609559     0.870988899
 H        2.276098569     0.471874917    -0.911866496
 H      -25.903786505     6.943197936    -9.703702288
 H      -24.502822234     7.465640541    -8.734768556
 H      -25.669265963     6.297522821    -8.062086469
 H      -22.679432602     6.570769499   -11.182714977
 H      -22.859428888     4.918606114   -11.827833203
 H      -24.181258361     6.095118279   -12.014864615
 H      -25.666024488     3.356375320    -9.007792134
 H      -26.041393836     3.920981922   -10.656666281
 H      -24.642217246     2.852890596   -10.373597221
 H      -13.269505902     2.269762490    -2.143839779
 H      -12.924226076     1.219578749    -0.749607276
 H      -13.957267316     0.623170298    -2.071661883
 H      -16.753437143     1.269272688     1.150218414
 H      -16.211418476    -0.011794550     0.037413604
 H      -15.120037010     0.577918373     1.318179061
 H       -4.085179667    12.659238047     2.372199397
 H       -2.539186801    13.304068988     1.772640874
 H       -4.025690700    14.275383782     1.616566442
 H       -3.253851911    13.019777743    -2.441751860
 H       -3.608399457    14.502071219    -1.519124833
 H       -2.067557604    13.643077165    -1.266942684
 H       -0.276583906    -0.363588977    -2.449665184
 H       -0.265627508    -1.915981562    -1.573473904
 H       -1.726134684    -0.893952535    -1.563413151
 H       -0.274755332    -0.364832266     2.449095318
 H       -1.712879832    -0.927511755     1.562951882
 H       -0.232196891    -1.918151227     1.575777950

