139   

Si        0.000000000     0.000000000     0.000000000
 C        1.869411328     0.000000000     0.000000000
 C       -0.645654981     1.728781749     0.000000000
 C       -1.910987611     2.009967769     0.525789890
 C       -2.405199797     3.313358528     0.529156593
 C       -1.646712412     4.365324222     0.009864756
 C       -0.381214121     4.082129472    -0.520457052
 C        0.112209707     2.779801799    -0.530705460
 C       -2.122798345     5.743524134    -0.007544672
 C       -3.314828015     6.149333420     0.461745821
 C       -3.777029143     7.532932755     0.437164440
 C       -5.041713868     7.838328007     0.956138109
 C       -5.519107835     9.147802691     0.950894499
 C       -4.725389085    10.185542366     0.451906692
 C       -3.456438309     9.885139780    -0.057444605
 C       -2.990327302     8.572703810    -0.067612669
Si       -5.292727271    11.939714139     0.414408908
 C       -4.627783338    12.681344398    -1.125690470
 C       -3.801451606    13.734046216    -1.166087888
 C       -3.272649173    14.323222462    -2.399608098
 C       -2.413686158    15.427610117    -2.297014689
 C       -1.884181913    16.024620649    -3.431367653
 C       -2.231587860    15.539710088    -4.701508295
 C       -3.102956071    14.451401803    -4.814549937
 C       -3.621094423    13.854761196    -3.669105007
 N       -1.633907366    16.221232040    -5.816738064
 C       -0.311241209    15.655711596    -6.167533778
 C       -2.531351457    16.356390606    -6.978675698
 C       -0.355895413    14.265568085    -6.829389654
 C        0.705505288    13.285094201    -6.297408228
 N        0.409182834    12.634287362    -5.009752887
 C       -0.769247408    11.878794593    -4.892069408
 C       -1.493780482    11.455957581    -6.025612119
 C       -2.654572694    10.710710179    -5.878939236
 C       -3.079343593    10.265876472    -4.621447313
 C       -2.331909083    10.643126886    -3.501205484
 C       -1.200860794    11.435109476    -3.623465137
 C        0.773711442    13.446776526    -3.834902826
 C       -4.311628479     9.483277008    -4.525520624
 C       -4.820403846     9.002542806    -3.383526622
Si       -6.361972748     8.024785425    -3.272351371
 C       -6.015830245     6.361438211    -2.557396141
 C       -5.052791254     5.546645266    -3.168761508
 C       -4.768011298     4.285599415    -2.653819922
 C       -5.447592540     3.801896611    -1.527473412
 C       -6.406891117     4.616099266    -0.920805983
 C       -6.683963994     5.886934366    -1.425850849
 C       -5.110592595     2.473286210    -1.028464903
 C       -5.668314975     1.889871422     0.046070459
 C       -5.320434899     0.559236852     0.533273328
 C       -4.357212322    -0.240007560    -0.088367676
 C       -4.052358140    -1.507164060     0.407630260
 C       -4.692439472    -1.996285414     1.550011922
 C       -5.653247603    -1.194445336     2.180820455
 C       -5.962827364     0.066031259     1.676877076
Si       -4.308324928    -3.669475087     2.228062092
 C       -2.940467537    -4.474678480     1.239920887
 C       -3.752079950    -3.481891692     4.002681729
 C       -5.847500957    -4.724034974     2.140951097
 C       -7.549838495     8.971561096    -2.182006944
 C       -7.136192635     7.776225640    -4.956306382
 C       -7.156598067    12.033673367     0.346118068
 C       -4.662095664    12.808743677     1.940565845
 C       -0.635260606    -0.866046737    -1.530960713
 C       -0.608483159    -0.888937857     1.527437443
 H       -2.550397371     1.231927759     0.957689552
 H       -3.396335167     3.503445413     0.940662587
 H        0.224305771     4.886701337    -0.933056035
 H        1.104343569     2.619854826    -0.959745499
 H       -1.424392421     6.461298216    -0.449239457
 H       -4.022256175     5.433078188     0.889288774
 H       -5.666609037     7.041340057     1.354669471
 H       -6.517970895     9.325611275     1.355823524
 H       -2.789536993    10.662022020    -0.448837563
 H       -2.003114920     8.361643649    -0.476789403
 H       -4.963942831    12.178733012    -2.048478048
 H       -3.450146066    14.248274110    -0.261568274
 H       -2.151663713    15.820483279    -1.315169282
 H       -1.216507500    16.881168301    -3.351975157
 H       -3.381229016    14.063864494    -5.791394915
 H       -4.290350750    12.997996018    -3.773698803
 H       -2.073058697    17.063413658    -7.691308830
 H       -3.487124637    16.796936398    -6.644312111
 H       -2.748794413    15.418672706    -7.510926761
 H        1.631253009    14.098954353    -4.062141471
 H        1.091864199    12.773837358    -3.017415036
 H       -0.058677213    14.076633487    -3.471064746
 H       -1.158514386    11.711648485    -7.025228734
 H       -3.224094603    10.440671229    -6.768623577
 H       -2.640976886    10.307209552    -2.508851386
 H       -0.654597039    11.713239972    -2.727168278
 H       -4.790816229     9.322557599    -5.500713045
 H       -4.321967110     9.166605217    -2.412941003
 H       -4.488347031     5.873911547    -4.047792777
 H       -4.004292335     3.672185036    -3.129415558
 H       -6.947142769     4.263988899    -0.044781961
 H       -7.436591858     6.484009676    -0.904808304
 H       -4.333202016     1.956450316    -1.602117797
 H       -6.441805533     2.403362586     0.622711955
 H       -3.845884344     0.118226340    -0.981773828
 H       -3.303336688    -2.093698507    -0.132804383
 H       -6.186238051    -1.524974379     3.076391223
 H       -6.713874802     0.672688418     2.178737985
 H        0.185225929    16.387595207    -6.842977515
 H        0.298843140    15.632850204    -5.238149656
 H       -1.364034869    13.823783325    -6.688634755
 H       -0.234934523    14.369881093    -7.923219205
 H        0.859268198    12.468044840    -7.044627022
 H        1.690458062    13.796715009    -6.212301775
 H        2.269517647    -1.026507920     0.073591076
 H        2.268746282     0.573327064     0.856041792
 H        2.279899137     0.448296761    -0.921259211
 H       -2.680131272    -5.465025351     1.653903218
 H       -2.021314951    -3.860753166     1.247240630
 H       -3.235672491    -4.625591312     0.186395742
 H       -2.853999356    -2.841692918     4.075426072
 H       -4.536857181    -3.020984567     4.627963554
 H       -3.501302943    -4.459574890     4.450355836
 H       -6.197306134    -4.836325906     1.098580882
 H       -5.664989450    -5.736709369     2.541587965
 H       -6.676656031    -4.280399204     2.720092271
 H       -7.165582069     9.036782981    -1.146678952
 H       -7.692269410    10.002794691    -2.551638243
 H       -8.540603653     8.488139832    -2.145931815
 H       -6.460492216     7.226710580    -5.635479781
 H       -8.070750097     7.191891047    -4.880941743
 H       -7.384444527     8.740327179    -5.433282666
 H       -7.559010497    11.459217342    -0.508575218
 H       -7.617958880    11.634942087     1.265977897
 H       -7.498121892    13.078459643     0.231367489
 H       -3.559607915    12.769998979     2.003664902
 H       -4.963025041    13.871241959     1.954626281
 H       -5.057753495    12.340353565     2.859834365
 H       -0.290267856    -0.358332194    -2.449266588
 H       -0.283885765    -1.911306689    -1.575530954
 H       -1.739478590    -0.881183800    -1.557956510
 H       -0.253495481    -0.389946071     2.447185527
 H       -1.713769378    -0.909138311     1.572400822
 H       -0.255318619    -1.933920042     1.557117512

