139   

Si        0.000000000     0.000000000     0.000000000
 C        1.869278902     0.000000000     0.000000000
 C       -0.655638745     1.725508031     0.000000000
 C        0.187447319     2.830078581     0.152095393
 C       -0.331504026     4.124988004     0.148852253
 C       -1.702744557     4.344785855    -0.004068134
 C       -2.546851279     3.235985735    -0.154178136
 C       -2.032092669     1.942614853    -0.151252121
 C       -2.290388432     5.680472236    -0.013629853
 C       -1.595386492     6.822814842     0.120401182
 C       -2.182666130     8.158736324     0.110893314
 C       -3.554883316     8.377436937    -0.042192516
 C       -4.074108331     9.671333030    -0.045513839
 C       -3.228309514    10.776277607     0.097806755
 C       -1.853339136    10.561019280     0.251165390
 C       -1.338702209     9.266943182     0.260526506
Si       -3.915803499    12.490503930     0.093452339
 C       -2.552295758    13.637547184    -0.339379875
 C       -2.089622242    14.638971389     0.419987857
 C       -0.992656242    15.525836812     0.018548605
 C       -0.585389033    16.543522022     0.888572354
 C        0.450134643    17.407154151     0.548758666
 C        1.076471939    17.295782375    -0.698476525
 C        0.666616716    16.280961643    -1.581722037
 C       -0.345006921    15.404751485    -1.217273899
 N        2.145927371    18.129465981    -1.145168824
 C        2.968524332    18.769380463    -0.106055041
 C        1.749850877    19.042236234    -2.233591993
 C        2.457037498    20.120336174     0.428072692
 C        3.141002784    20.474026894     1.765220206
 N        2.239216546    21.102352355     2.758812777
 C        1.117758574    20.274820481     3.062769898
 C        1.375937142    19.059134023     3.724450637
 C        0.330506272    18.209398232     4.048544243
 C       -0.996906440    18.556304140     3.754374015
 C       -1.246400992    19.772420267     3.114179829
 C       -0.205744260    20.628835127     2.771349881
 C        1.922555817    22.500996304     2.419472014
 C       -2.071187816    17.627195972     4.115088861
 C       -3.365617753    17.870649223     3.875163029
Si       -4.771411190    16.772755570     4.288825599
 C       -5.593188099    16.385438436     2.680683069
 C       -4.902793220    16.579438611     1.478939145
 C       -5.510687353    16.291334376     0.258384355
 C       -6.820012316    15.804827884     0.211762282
 C       -7.508384976    15.609256492     1.416422999
 C       -6.902574164    15.893151681     2.638303480
 C       -7.493891347    15.490519508    -1.043626779
 C       -6.940926131    15.635056434    -2.260316702
 C       -7.608591849    15.322890763    -3.519098788
 C       -8.915539740    14.833198317    -3.577923102
 C       -9.515253430    14.547950303    -4.804770113
 C       -8.817034676    14.741999625    -6.000039536
 C       -7.504388312    15.230697756    -5.943670495
 C       -6.909340944    15.516764373    -4.718280064
Si       -9.581432925    14.374426315    -7.639702925
 C      -11.302866595    13.677230100    -7.430130084
 C       -9.671223073    15.959024381    -8.626315599
 C       -8.516575467    13.123532500    -8.531070702
 C       -4.201620195    15.178455153     5.072491620
 C       -5.935389831    17.682463059     5.426683741
 C       -5.231202105    12.629011791    -1.222119137
 C       -4.644787884    12.854814392     1.768813025
 C       -0.610657546    -0.880969352    -1.531528549
 C       -0.623026684    -0.871847356     1.531072292
 H        1.268447051     2.722008737     0.275516419
 H        0.346909254     4.968099608     0.267465591
 H       -3.618343323     3.385218988    -0.274381644
 H       -2.739440153     1.117407614    -0.271876662
 H       -3.376578551     5.701288580    -0.141730837
 H       -0.509019716     6.802035394     0.248533591
 H       -4.231963956     7.533652903    -0.160069880
 H       -5.155406581     9.780142173    -0.167537685
 H       -1.146642445    11.389241893     0.368408123
 H       -0.267494712     9.118473108     0.383249531
 H       -2.117763934    13.432173226    -1.332201327
 H       -2.500324995    14.873714910     1.410935294
 H       -1.080379530    16.666075582     1.854918836
 H        0.752104799    18.177164001     1.256940641
 H        1.164175752    16.176542609    -2.543705506
 H       -0.636569691    14.614817299    -1.910007259
 H        2.647803089    19.549555879    -2.623866392
 H        1.015018653    19.803547099    -1.927987524
 H        1.313005937    18.457410866    -3.061534467
 H        2.862127135    23.081346030     2.422260622
 H        1.276161602    22.933024341     3.203223368
 H        1.435081455    22.633566770     1.441734430
 H        2.399338821    18.794431096     3.983153448
 H        0.545033261    17.264246670     4.548291211
 H       -2.269496836    20.063169483     2.869974922
 H       -0.432747550    21.562556125     2.265153744
 H       -1.714831739    16.711768708     4.603824271
 H       -3.685163670    18.808229409     3.387749305
 H       -3.873946352    16.957893429     1.449066849
 H       -4.948452619    16.446853091    -0.662271606
 H       -8.528276070    15.230219738     1.400555877
 H       -7.487515583    15.720843020     3.545229315
 H       -8.515627121    15.116179997    -0.935245977
 H       -5.918644588    16.013699497    -2.366771772
 H       -9.480589644    14.671192916    -2.661751473
 H      -10.541083357    14.169905369    -4.787263625
 H       -6.910267572    15.401435043    -6.845949734
 H       -5.888581292    15.894995864    -4.693776752
 H        3.094877821    18.041967133     0.729136036
 H        3.982697736    18.905590510    -0.551903959
 H        2.630992425    20.917583052    -0.314391431
 H        1.357104814    20.077973006     0.554759845
 H        3.570498495    19.563233464     2.242501753
 H        3.999937613    21.157523837     1.593380349
 H        2.267238756    -1.029960139    -0.034668612
 H        2.276238883     0.479880943     0.907683803
 H        2.272453481     0.539375019    -0.875803915
 H      -11.751766957    13.425947498    -8.407899326
 H      -11.975933724    14.399279245    -6.934541156
 H      -11.294711424    12.753468749    -6.824446677
 H      -10.294560547    16.714314390    -8.113963709
 H       -8.670498731    16.402651823    -8.772903307
 H      -10.109824542    15.786990486    -9.624948431
 H       -8.439333492    12.182607934    -7.956258968
 H       -8.933620731    12.874482060    -9.522723268
 H       -7.490061344    13.500163992    -8.685815829
 H       -3.530523376    14.612720757     4.399280235
 H       -3.654815834    15.364175435     6.014071818
 H       -5.056642159    14.520427190     5.310821315
 H       -6.318404512    18.607886854     4.959298449
 H       -6.808053154    17.062272971     5.696930540
 H       -5.431243771    17.972749452     6.366628668
 H       -4.837864375    12.380847390    -2.223848848
 H       -6.081725202    11.954696036    -1.020944057
 H       -5.636131164    13.658226313    -1.269989721
 H       -3.872638288    12.876437780     2.557569236
 H       -5.155264835    13.838892118     1.770239303
 H       -5.393867883    12.096952303     2.057541345
 H       -0.275768943    -0.363999086    -2.449265645
 H       -0.232601405    -1.917434118    -1.576328695
 H       -1.713391716    -0.926806042    -1.562714038
 H       -0.275972092    -0.364347276     2.449496369
 H       -1.726862156    -0.891856188     1.563702546
 H       -0.268118083    -1.916471921     1.572727403

