139   

Si        0.000000000     0.000000000     0.000000000
 C        1.869398779     0.000000000     0.000000000
 C       -0.645954178     1.729543483     0.000000000
 C        0.153265732     2.799021919    -0.416119575
 C       -0.345202620     4.101639440    -0.411966356
 C       -1.654043505     4.364497539     0.000980380
 C       -2.455147329     3.291163785     0.413196120
 C       -1.959597676     1.989938729     0.412108804
 C       -2.217826014     5.710393669     0.021900115
 C       -1.556948566     6.821498355    -0.344988384
 C       -2.118924137     8.168125744    -0.324778068
 C       -3.428105794     8.432410007     0.088103303
 C       -3.924795006     9.735295283     0.091615604
 C       -3.117155799    10.803762225    -0.311730999
 C       -1.805132710    10.543195468    -0.725624725
 C       -1.314722480     9.239737842    -0.734520269
Si       -3.768517609    12.530234947    -0.309353234
 C       -2.347397124    13.684036020    -0.239521704
 C       -2.054205526    14.611325632    -1.160770216
 C       -0.909780162    15.520126897    -1.076906729
 C       -0.704664740    16.451383661    -2.104941574
 C        0.362709068    17.333633725    -2.073743246
 C        1.245910737    17.349247877    -0.971460662
 C        1.039546740    16.414681331     0.062554321
 C       -0.007876345    15.505809052    -0.009395268
 N        2.324498194    18.244702448    -0.945864937
 C        2.189202736    19.514582513    -1.678890686
 C        3.087070329    18.347450361     0.306633983
 C        1.004576519    20.396273054    -1.248282981
 C        1.279093884    21.249059736     0.002284750
 N        2.091173616    22.458086671    -0.223901329
 C        1.660020191    23.354130750    -1.215052810
 C        0.276831649    23.544818066    -1.428730868
 C       -0.167248338    24.424520237    -2.401850172
 C        0.734476052    25.180386239    -3.165279552
 C        2.101676412    25.012603615    -2.930892876
 C        2.565846440    24.123529894    -1.969760363
 C        3.539749384    22.248622955    -0.089303898
 C        0.210971494    26.095486022    -4.181042764
 C        0.977338787    26.864239255    -4.966027828
Si        0.365498209    28.021445292    -6.247687500
 C        0.940035552    29.719861685    -5.812019791
 C        1.214575751    30.051188088    -4.480876522
 C        1.649007615    31.333162558    -4.146142815
 C        1.810758895    32.312087288    -5.130728900
 C        1.530679902    31.978213813    -6.462465801
 C        1.099774008    30.697852988    -6.800984301
 C        2.262777065    33.666111640    -4.827011806
 C        2.563787140    34.113393504    -3.596015443
 C        3.015835722    35.467058119    -3.291257226
 C        3.181362621    36.446323073    -4.274507261
 C        3.615829775    37.728067916    -3.937970584
 C        3.885671011    38.062217729    -2.606650499
 C        3.719521004    37.082652031    -1.619316858
 C        3.293658186    35.801097776    -1.959148111
Si        4.461138247    39.757633670    -2.155305569
 C        3.835157817    41.003125872    -3.401089104
 C        3.815602765    40.219293754    -0.462547417
 C        6.329651767    39.759462450    -2.143805176
 C        1.082640763    27.494487864    -7.890676197
 C       -1.499129152    28.031104285    -6.340033361
 C       -4.788145576    12.781089179    -1.853188318
 C       -4.823190609    12.818830750     1.205963792
 C       -0.629306790    -0.862622500    -1.533360029
 C       -0.604248160    -0.893640807     1.527011114
 H        1.184335755     2.656733949    -0.751372492
 H        0.299253596     4.916671365    -0.736924426
 H       -3.477782130     3.473637018     0.738426949
 H       -2.631443636     1.193919112     0.744897864
 H       -3.254007788     5.766945252     0.368056263
 H       -0.520740811     6.764036416    -0.691664619
 H       -4.073532741     7.617640048     0.410744841
 H       -4.956650034     9.880045875     0.422833609
 H       -1.130527585    11.341986219    -1.052164521
 H       -0.293217378     9.055234825    -1.062359617
 H       -1.722226034    13.557811375     0.659176077
 H       -2.659416846    14.761385081    -2.064759330
 H       -1.389249010    16.476243813    -2.953845823
 H        0.511876470    18.014586718    -2.906852967
 H        1.698771489    16.382993600     0.923523578
 H       -0.132351152    14.779868429     0.796298964
 H        3.886632455    19.099812676     0.207227082
 H        3.585021784    17.378982238     0.504712939
 H        2.465750720    18.608517387     1.179337696
 H        3.745642871    21.541347652     0.731090742
 H        4.016284410    23.207290518     0.191948530
 H        4.021759220    21.873214231    -1.006952728
 H       -0.448665404    23.000702722    -0.830399267
 H       -1.239640445    24.540134918    -2.564351197
 H        2.826270534    25.589185874    -3.508970030
 H        3.636341769    24.025697181    -1.823581322
 H       -0.885552600    26.094701728    -4.239735055
 H        2.076281458    26.842596664    -4.883843744
 H        1.104810023    29.325439363    -3.667762167
 H        1.860726615    31.566075617    -3.103943661
 H        1.650770562    32.725980839    -7.244017142
 H        0.898977928    30.494494001    -7.856192142
 H        2.346674056    34.325892460    -5.695560381
 H        2.479423657    33.453179682    -2.727551939
 H        2.972282374    36.214139772    -5.317255352
 H        3.728973480    38.449741391    -4.751741900
 H        3.914477629    37.285698422    -0.562621181
 H        3.172894794    35.052921165    -1.177705933
 H        3.144597834    20.077585201    -1.594193280
 H        2.094791130    19.266140347    -2.764140379
 H        0.717630115    21.055054371    -2.093833826
 H        0.113580994    19.761145623    -1.063872494
 H        0.308130866    21.581244984     0.444556730
 H        1.764204891    20.633913815     0.791175408
 H        2.267429243    -1.027903402     0.073206288
 H        2.270629865     0.572223774     0.855926354
 H        2.278696459     0.446293752    -0.923306940
 H        4.112396196    42.032050983    -3.110134053
 H        2.733722269    40.967172072    -3.483630011
 H        4.251743351    40.821789422    -4.407275154
 H        2.713294492    40.150024367    -0.423050834
 H        4.219333394    39.558827023     0.324551042
 H        4.092636072    41.255376938    -0.198340129
 H        6.737852441    39.495687856    -3.136112349
 H        6.729979552    40.751510586    -1.870529173
 H        6.728196764    39.026501035    -1.419482656
 H        2.185034015    27.570596306    -7.891630194
 H        0.823039512    26.444827409    -8.119242469
 H        0.704319642    28.117879159    -8.719325195
 H       -1.948108811    28.338749484    -5.377905192
 H       -1.858731885    28.737511004    -7.109714279
 H       -1.895746925    27.031933802    -6.593094779
 H       -4.183243330    12.622860299    -2.764783872
 H       -5.634077603    12.071664249    -1.894587569
 H       -5.206504583    13.802130593    -1.899133493
 H       -4.265908174    12.592541997     2.132979055
 H       -5.152976692    13.871855355     1.266325913
 H       -5.728196850    12.186965668     1.198504415
 H       -0.284550890    -0.352689489    -2.451111246
 H       -0.278041776    -1.908322440    -1.580275268
 H       -1.733570597    -0.878797850    -1.561875823
 H       -0.295793798    -0.364303563     2.446939105
 H       -1.704932184    -0.976268628     1.544944598
 H       -0.194443567    -1.917855533     1.579708632

