139   

Si        0.000000000     0.000000000     0.000000000
 C        1.867901928     0.000000000     0.000000000
 C       -0.586124361     1.746100805     0.000000000
 C       -0.092216010     2.644413764    -0.952841753
 C       -0.524277406     3.969420775    -0.968068799
 C       -1.455497286     4.422108684    -0.029380493
 C       -1.948710609     3.521176547     0.923396791
 C       -1.521122374     2.196319719     0.938522104
 C       -1.943485958     5.794602584     0.003561798
 C       -1.572769756     6.773625414    -0.838776291
 C       -2.089513475     8.136350398    -0.767247883
 C       -1.640867123     9.086856694    -1.691928015
 C       -2.112420921    10.396849758    -1.653514866
 C       -3.057614535    10.783275341    -0.695015636
 C       -3.509167268     9.834640422     0.228119228
 C       -3.026233686     8.528011357     0.193738132
Si       -3.690692349    12.513372126    -0.632180295
 C       -4.132379935    13.103998647    -2.308539788
 C       -4.017113835    12.389516149    -3.434755880
 C       -4.376859463    12.883453461    -4.764163357
 C       -4.208416913    12.033495977    -5.868177426
 C       -4.533905491    12.453106516    -7.147149159
 C       -5.022418272    13.757819922    -7.361578890
 C       -5.197153049    14.608057849    -6.258648561
 C       -4.891054714    14.163391702    -4.977571514
 N       -5.345480109    14.152821886    -8.685281273
 C       -4.265110565    13.882640010    -9.662275197
 C       -5.931229995    15.493305853    -8.848892852
 C       -2.920911977    14.486254685    -9.218262354
 C       -1.761479080    13.974788747   -10.088630102
 N       -0.443796364    14.340735647    -9.540257990
 C        0.029022814    13.552156191    -8.462808745
 C        0.132929811    12.156897559    -8.619237948
 C        0.594432077    11.368475276    -7.573600436
 C        0.972726462    11.933853527    -6.347269145
 C        0.878886559    13.321652629    -6.204690285
 C        0.425256607    14.124831440    -7.242168823
 C       -0.243565905    15.793853318    -9.433115297
 C        1.456910719    11.074007884    -5.260197007
 C        1.832693791    11.553133213    -4.067146444
Si        2.459329336    10.679299084    -2.587423143
 C        2.609381134     8.845652337    -2.728090040
 C        1.611346066     8.090652800    -3.356417164
 C        1.725825543     6.704209777    -3.462226312
 C        2.823600066     6.036250242    -2.913022596
 C        3.814585480     6.791919360    -2.271931842
 C        3.711776327     8.177608752    -2.181852407
 C        3.002003595     4.590433475    -2.989387468
 C        2.151210227     3.725194712    -3.566029061
 C        2.367264216     2.281358022    -3.621277646
 C        3.497639362     1.670731275    -3.068543129
 C        3.671041392     0.289707718    -3.139825932
 C        2.712964938    -0.518090498    -3.764661933
 C        1.579029368     0.089915737    -4.314818824
 C        1.408157917     1.471366998    -4.241555334
Si        2.979718424    -2.344857304    -3.838376555
 C        2.891379454    -3.033547626    -2.102563534
 C        1.658981976    -3.152212409    -4.886533851
 C        4.657510655    -2.724208006    -4.564371092
 C        4.155166407    11.411088522    -2.263694968
 C        1.356931394    11.062693576    -1.130987381
 C       -5.209645712    12.635983528     0.448305123
 C       -2.331988035    13.604611856     0.045143872
 C       -0.645566205    -0.836905989    -1.541283635
 C       -0.616440864    -0.915558994     1.509666011
 H        0.643980276     2.345108235    -1.707914465
 H       -0.119171201     4.653324982    -1.712650694
 H       -2.674277724     3.856548683     1.661644146
 H       -1.939768935     1.538202053     1.704093883
 H       -2.672190751     5.994447056     0.796431240
 H       -0.840157362     6.592127235    -1.629766248
 H       -0.917499953     8.796882931    -2.453072174
 H       -1.713479473    11.100684085    -2.393404407
 H       -4.247360649    10.075555615     0.998085636
 H       -3.392016442     7.810693705     0.926355052
 H       -4.512251303    14.137471854    -2.326392115
 H       -3.654631704    11.351219779    -3.449246975
 H       -3.815842332    11.026308843    -5.719967913
 H       -4.416560287    11.772292076    -7.986424040
 H       -5.569217229    15.619307445    -6.387093343
 H       -5.044053169    14.837516736    -4.134298712
 H       -6.251154608    15.620039385    -9.897668062
 H       -5.249669755    16.318459609    -8.589954993
 H       -6.841708833    15.571030669    -8.227623574
 H       -0.503029852    16.264548737   -10.397149066
 H        0.827034290    15.999150480    -9.250774021
 H       -0.836866526    16.276166472    -8.639897734
 H       -0.141122069    11.697878843    -9.565585219
 H        0.665786764    10.289667944    -7.713180410
 H        1.160707747    13.794138274    -5.262103871
 H        0.356427600    15.196962789    -7.083957429
 H        1.487233691    10.009101617    -5.515478947
 H        1.783504987    12.642866551    -3.874590240
 H        0.726190034     8.558109437    -3.799509727
 H        0.946016391     6.142105068    -3.972604883
 H        4.678286334     6.292569914    -1.836360773
 H        4.521800449     8.709258744    -1.674814361
 H        3.921633324     4.226101932    -2.518267639
 H        1.229851348     4.073830825    -4.039499282
 H        4.258532173     2.274316585    -2.575851925
 H        4.578055915    -0.126409827    -2.691834659
 H        0.799306226    -0.489104376    -4.817242683
 H        0.516611406     1.922394546    -4.674599834
 H       -4.181449398    12.778324324    -9.779529555
 H       -4.566838561    14.275555477   -10.655575464
 H       -2.973474752    15.588337516    -9.245643717
 H       -2.718358376    14.223381397    -8.157602199
 H       -1.815034091    12.868365107   -10.195257675
 H       -1.828512037    14.393420147   -11.117868975
 H        2.273306520    -1.024992129     0.049325621
 H        2.269769637     0.563928969     0.860201146
 H        2.265566298     0.471024663    -0.920011332
 H        3.104322193    -4.116856854    -2.090521060
 H        1.887342134    -2.887824525    -1.663897698
 H        3.619999347    -2.541618419    -1.434096890
 H        0.650529202    -2.991359980    -4.465695934
 H        1.661308083    -2.754407894    -5.917030617
 H        1.816784959    -4.243540115    -4.954738272
 H        5.468129032    -2.210284199    -4.018502654
 H        4.862028696    -3.810196231    -4.520403901
 H        4.723259928    -2.411752925    -5.621939227
 H        4.863191391    11.143237052    -3.068549233
 H        4.113562873    12.513319975    -2.214665750
 H        4.578081637    11.054762915    -1.308955792
 H        0.361907866    10.589382747    -1.228008539
 H        1.798419861    10.684274543    -0.190729116
 H        1.196799177    12.148435045    -1.013202859
 H       -6.009752504    11.961763479     0.090991179
 H       -4.987695264    12.369876112     1.496462559
 H       -5.619994233    13.661582387     0.447810185
 H       -1.439730232    13.582156381    -0.606869714
 H       -2.659329204    14.655382926     0.127370598
 H       -2.016922844    13.271620522     1.050133385
 H       -0.238083399    -0.355459244    -2.450280775
 H       -0.362796126    -1.902906707    -1.571933928
 H       -1.746591249    -0.778969987    -1.599807243
 H       -0.285412269    -0.423867783     2.441723669
 H       -1.718934374    -0.969506599     1.531083602
 H       -0.235075705    -1.951751180     1.529255365

