139   

Si        0.000000000     0.000000000     0.000000000
 C        1.869065837     0.000000000     0.000000000
 C       -0.658441785     1.724589751     0.000000000
 C        0.182516078     2.830896849    -0.151480570
 C       -0.338987761     4.124848386    -0.148185820
 C       -1.710769770     4.341582755     0.004492475
 C       -2.552823600     3.231137003     0.154185053
 C       -2.035459907     1.938792644     0.151095378
 C       -2.301632915     5.675840943     0.014180664
 C       -1.610236961     6.820473185    -0.119431442
 C       -2.203316741     8.153813691    -0.109439248
 C       -1.365622027     9.266095145    -0.258916920
 C       -1.887471466    10.558258664    -0.255500440
 C       -3.261321726    10.767668371    -0.096397168
 C       -4.101166466     9.656897432     0.054136860
 C       -3.576850473     8.365927450     0.045497074
Si       -3.993257878    12.461432133    -0.086028630
 C       -5.143676540    12.649333150    -1.499452467
 C       -5.406889468    11.693200545    -2.400169944
 C       -6.327094413    11.849480028    -3.527293911
 C       -6.515141152    10.767896517    -4.401056825
 C       -7.373856460    10.861313805    -5.483154252
 C       -8.120209994    12.040054632    -5.703590520
 C       -7.933423231    13.125248592    -4.827219677
 C       -7.033320815    13.029227288    -3.772687980
 N       -8.985630563    12.113448156    -6.807753088
 C       -9.695787300    10.882239945    -7.197376498
 C       -9.776048429    13.342538024    -6.963832874
 C      -10.505276990    10.206365276    -6.077456175
 C      -11.860059519    10.875464568    -5.790282673
 N      -12.943262559    10.529479957    -6.727072105
 C      -13.252774006     9.170987842    -6.893837723
 C      -13.116072236     8.282549512    -5.804119728
 C      -13.417566411     6.939096139    -5.952810350
 C      -13.909135546     6.433774234    -7.165271424
 C      -14.072071103     7.319991892    -8.233238037
 C      -13.758497416     8.667343655    -8.107742652
 C      -13.010600236    11.387683571    -7.918346577
 C      -14.211461051     5.005046915    -7.267416518
 C      -14.684104261     4.414078989    -8.372694922
Si      -15.074410532     2.632219607    -8.540628181
 C      -14.026082437     1.930771000    -9.887640028
 C      -12.845292236     2.574997363   -10.276462178
 C      -12.054887479     2.044709612   -11.293180709
 C      -12.419296410     0.856006550   -11.938797745
 C      -13.596370033     0.213170914   -11.544392032
 C      -14.392162036     0.743106964   -10.529529164
 C      -11.558567770     0.339836508   -12.998313508
 C      -11.795090402    -0.783727289   -13.696543296
 C      -10.934755959    -1.300288487   -14.756064485
 C       -9.757680651    -0.659175848   -15.151818636
 C       -8.965135279    -1.188689488   -16.169806592
 C       -9.336895498    -2.369511226   -16.820831530
 C      -10.516584551    -3.013647797   -16.426473573
 C      -11.302743211    -2.486257536   -15.405162865
Si       -8.293141256    -3.077050170   -18.169530546
 C       -7.292409940    -1.726319723   -18.987662863
 C       -7.145651493    -4.347283119   -17.420451405
 C       -9.382458842    -3.885901742   -19.455788492
 C      -14.722956733     1.694741107    -6.964754793
 C      -16.882191044     2.476316281    -8.986555583
 C       -4.936103213    12.705553623     1.508656100
 C       -2.662724740    13.765068771    -0.232503837
 C       -0.622152070    -0.872277642    -1.530994395
 C       -0.609984599    -0.881445184     1.531493484
 H        1.263822015     2.724722201    -0.274631675
 H        0.337756235     4.969266414    -0.266887286
 H       -3.624688379     3.377999284     0.274224076
 H       -2.741431841     1.112142670     0.271101139
 H       -3.388096215     5.693232382     0.142188940
 H       -0.523888172     6.803529900    -0.247215940
 H       -0.293584642     9.123373349    -0.381357466
 H       -1.185358323    11.387051412    -0.380784091
 H       -5.183387793     9.760109573     0.182297835
 H       -4.249897926     7.518558455     0.162939400
 H       -5.620411150    13.639299249    -1.560893395
 H       -4.938463897    10.698217910    -2.362037132
 H       -5.965543371     9.839642413    -4.235059715
 H       -7.468740777    10.019614195    -6.163701329
 H       -8.482292981    14.050987605    -4.961511905
 H       -6.894478271    13.890893786    -3.118175578
 H      -10.376143968    13.289663675    -7.887430518
 H       -9.086856963    14.200383028    -7.082429767
 H      -10.450692574    13.548976637    -6.116956167
 H      -12.753210231    12.426423590    -7.652862596
 H      -14.052594148    11.403945427    -8.291000069
 H      -12.349562638    11.060512111    -8.737778308
 H      -12.769422347     8.647175305    -4.841165259
 H      -13.283075581     6.267102496    -5.104158827
 H      -14.453190089     6.954582768    -9.188578935
 H      -13.899674514     9.317382030    -8.964649330
 H      -14.010489208     4.453429311    -6.339322861
 H      -14.879734516     4.994765775    -9.288687246
 H      -12.509739304     3.504595593    -9.804502948
 H      -11.142638355     2.561521353   -11.585786546
 H      -13.902131358    -0.711697524   -12.029906531
 H      -15.302072146     0.197138327   -10.266062384
 H      -10.670291825     0.945479998   -13.201333406
 H      -12.683359346    -1.389190468   -13.493265467
 H       -9.447945537     0.263670472   -14.664370193
 H       -8.055246737    -0.642429311   -16.433675381
 H      -10.857796752    -3.938866351   -16.898973982
 H      -12.214983464    -3.002556741   -15.111788025
 H      -10.350281084    11.106879212    -8.067499143
 H       -8.929704647    10.166552064    -7.584155825
 H      -10.663821164     9.139668263    -6.338639566
 H       -9.905624882    10.187285432    -5.143809471
 H      -12.204109597    10.594428639    -4.765129180
 H      -11.749385993    11.981714878    -5.765660155
 H        2.266705583    -1.029544349     0.050501016
 H        2.272977055     0.552595429     0.867203512
 H        2.276027287     0.465516863    -0.915150119
 H       -6.722821039    -2.118174027   -19.849153213
 H       -6.565387108    -1.275002585   -18.289970113
 H       -7.944416948    -0.916515095   -19.362173275
 H       -6.488964818    -3.894227052   -16.655887128
 H       -7.710460778    -5.159476234   -16.928584265
 H       -6.498101600    -4.807133147   -18.187433153
 H      -10.124975479    -3.172105289   -19.856433117
 H       -8.786052135    -4.257400877   -20.307973467
 H       -9.937098933    -4.745739665   -19.041400708
 H      -13.659154302     1.777346792    -6.676158190
 H      -15.330879537     2.075564387    -6.124907628
 H      -14.948399872     0.619245527    -7.079068324
 H      -17.098927972     2.952790777    -9.959787981
 H      -17.195119461     1.420075388    -9.055400797
 H      -17.522178883     2.964624982    -8.229174426
 H       -5.753785486    11.969758017     1.611562943
 H       -4.273043799    12.588115507     2.384844363
 H       -5.386347439    13.712206992     1.562401924
 H       -2.106962904    13.667776696    -1.183008651
 H       -3.093465850    14.781968553    -0.206920171
 H       -1.933890447    13.693071303     0.594087622
 H       -0.278269006    -0.363145191    -2.449699531
 H       -0.263533577    -1.915716165    -1.573858823
 H       -1.725986816    -0.896532473    -1.562306447
 H       -0.270878073    -0.367392731     2.449334272
 H       -1.712771662    -0.924020470     1.565361359
 H       -0.235190398    -1.919321453     1.573574816

