139   

Si        0.000000000     0.000000000     0.000000000
 C        1.869200433     0.000000000     0.000000000
 C       -0.656806785     1.725058015     0.000000000
 C        0.185904127     2.830115683    -0.150781241
 C       -0.333689028     4.124789682    -0.147600484
 C       -1.705434877     4.343637958     0.001868714
 C       -2.549253458     3.234422197     0.150507171
 C       -2.033570651     1.941418620     0.149501618
 C       -2.293926672     5.678936384     0.011250165
 C       -1.599524759     6.821921214    -0.119701011
 C       -2.188497009     8.156990508    -0.110253724
 C       -3.560705838     8.374253325     0.039339092
 C       -4.081424019     9.668204989     0.042682203
 C       -3.239882172    10.773364375    -0.112965738
 C       -1.863065080    10.558874330    -0.263388911
 C       -1.345373815     9.266773514    -0.257521467
Si       -3.905906137    12.496188144    -0.111876535
 C       -3.628203223    13.220087323     1.551316092
 C       -3.035588729    12.555117646     2.551555804
 C       -2.793687437    13.092078729     3.892345166
 C       -2.158584666    12.264395517     4.831600749
 C       -1.900579004    12.711516659     6.116784789
 C       -2.225052957    14.031931008     6.483259938
 C       -2.848662001    14.866651464     5.546183306
 C       -3.140943650    14.390504637     4.270973577
 N       -1.931021778    14.420875723     7.820879013
 C       -0.492928285    14.400024309     8.159329090
 C       -2.610047252    15.638797606     8.294324164
 C        0.308746795    15.575764233     7.569728400
 C        1.711599027    15.166648502     7.086181758
 N        1.764709694    14.548202882     5.746878385
 C        1.092913271    15.219490396     4.709291180
 C        1.044769647    16.630549528     4.708669694
 C        0.387718174    17.308287106     3.695002067
 C       -0.181640458    16.621323536     2.615001843
 C       -0.100490492    15.225572258     2.597444809
 C        0.527028708    14.529032408     3.620870858
 C        1.655897296    13.080611207     5.764114631
 C       -0.864013597    17.387539196     1.572136097
 C       -1.441255282    16.832091861     0.499497169
Si       -2.308705518    17.729612826    -0.838326819
 C       -4.032191484    17.063733551    -0.815529052
 C       -4.583421595    16.636447850     0.398385064
 C       -5.880293854    16.129860842     0.446688669
 C       -6.652142801    16.035618126    -0.715300453
 C       -6.098272409    16.464598549    -1.928258306
 C       -4.803214528    16.975940106    -1.979292149
 C       -8.013934548    15.511514091    -0.709632323
 C       -8.655075497    15.069960206     0.385808641
 C      -10.016210985    14.545150480     0.396849554
 C      -10.797131352    14.451154816    -0.758586121
 C      -12.094182641    13.942914433    -0.702405547
 C      -12.642852916    13.523109236     0.514660743
 C      -11.862097725    13.615911922     1.673225496
 C      -10.563837551    14.117041936     1.613007579
Si      -14.361620517    12.851351669     0.579031711
 C      -15.447320613    13.779857880    -0.626799416
 C      -14.301930221    11.041842729     0.117125695
 C      -15.067930122    13.039611062     2.299501707
 C       -2.355465002    19.571390559    -0.551324738
 C       -1.468634871    17.345440094    -2.460607921
 C       -3.038502717    13.510781360    -1.414461789
 C       -5.739872102    12.480923639    -0.457490394
 C       -0.622359282    -0.871756819    -1.531315260
 C       -0.610325221    -0.881852160     1.531189278
 H        1.267071626     2.722577807    -0.273205697
 H        0.344523034     4.968094768    -0.265228268
 H       -3.621189633     3.383054583     0.268274529
 H       -2.740660803     1.115819610     0.269735428
 H       -3.380618969     5.698895987     0.136714400
 H       -0.513144568     6.801939728    -0.246342918
 H       -4.237693112     7.530068118     0.156401723
 H       -5.163075393     9.775596950     0.167444568
 H       -1.157493471    11.386164728    -0.387889805
 H       -0.273631043     9.118593940    -0.373433826
 H       -3.989710310    14.252061417     1.672954536
 H       -2.673174442    11.521719400     2.438323411
 H       -1.883882304    11.245803684     4.554696761
 H       -1.461124198    12.042429559     6.853185169
 H       -3.097045380    15.893326489     5.797590812
 H       -3.629333495    15.054706250     3.556752899
 H       -2.446157195    15.735883553     9.381432613
 H       -3.698080663    15.529809117     8.137122696
 H       -2.274312318    16.568036829     7.808449848
 H        2.201072306    12.667881375     6.627887473
 H        2.142008868    12.676423503     4.856256407
 H        0.614143884    12.716105472     5.796678160
 H        1.520079323    17.194775846     5.505259814
 H        0.333882894    18.396603616     3.732329566
 H       -0.547129160    14.662115053     1.774446639
 H        0.547585947    13.443970882     3.576846824
 H       -0.856153685    18.470139107     1.751199335
 H       -1.428687775    15.738357739     0.350663242
 H       -4.022102744    16.684273090     1.338947300
 H       -6.288831350    15.803418847     1.402146869
 H       -6.683699391    16.399713934    -2.843269716
 H       -4.422862438    17.296809622    -2.952373932
 H       -8.505023293    15.499628159    -1.686680542
 H       -8.162577611    15.082904269     1.363531936
 H      -10.395807316    14.775646083    -1.717111130
 H      -12.654889901    13.892134360    -1.639955461
 H      -12.237597864    13.303532183     2.651619528
 H       -9.971481836    14.177869280     2.524607151
 H       -0.415957397    14.398429147     9.269912972
 H       -0.068050578    13.428933181     7.823329036
 H       -0.259082111    16.024697910     6.726872293
 H        0.398956349    16.383551457     8.317972446
 H        2.370228987    16.068557573     7.052064612
 H        2.187977831    14.480123967     7.819754464
 H        2.266858127    -1.029831393     0.042917501
 H        2.273001088     0.546378687     0.871104968
 H        2.275993136     0.472206972    -0.911794841
 H      -16.497517246    13.444505089    -0.559448147
 H      -15.119872413    13.632480197    -1.670746655
 H      -15.431861261    14.866078335    -0.423234629
 H      -13.886349320    10.898323368    -0.896413414
 H      -13.666534570    10.469340107     0.816815592
 H      -15.308671198    10.588660164     0.133005963
 H      -15.037150686    14.092935791     2.632272418
 H      -16.122259699    12.711834414     2.335559627
 H      -14.510954927    12.438185800     3.039223443
 H       -2.854289971    19.819701182     0.403162711
 H       -1.337943529    20.000461019    -0.519578723
 H       -2.909626921    20.089465422    -1.354531450
 H       -1.502093831    16.264263219    -2.687393853
 H       -1.943262212    17.879119649    -3.302049127
 H       -0.404688062    17.644610958    -2.436932686
 H       -1.996522741    13.745817759    -1.137750880
 H       -3.017511964    12.979674672    -2.382613887
 H       -3.569803428    14.468277587    -1.578456957
 H       -6.305292055    11.961284903     0.336189921
 H       -6.142882085    13.510514576    -0.523374792
 H       -5.964783078    11.980184879    -1.415456945
 H       -0.278623383    -0.362013327    -2.449740238
 H       -0.263708512    -1.915098029    -1.574748589
 H       -1.726185713    -0.895841512    -1.562300384
 H       -0.277243906    -0.364024591     2.449078858
 H       -1.712968053    -0.930342476     1.561405329
 H       -0.229978259    -1.917519724     1.576498033

