139   

Si        0.000000000     0.000000000     0.000000000
 C        1.869206587     0.000000000     0.000000000
 C       -0.642687933     1.729492457     0.000000000
 C        0.156280100     2.799316945    -0.416038613
 C       -0.342494886     4.101702507    -0.410891823
 C       -1.647265344     4.362861851     0.014587599
 C       -2.447103076     3.289577465     0.429819346
 C       -1.954060098     1.987823468     0.419654314
 C       -2.215658269     5.705634445     0.038971917
 C       -1.572073692     6.824960625    -0.334370630
 C       -2.166467750     8.157367478    -0.299468216
 C       -1.407808692     9.260958852    -0.711291866
 C       -1.945592679    10.546012708    -0.690131822
 C       -3.268996689    10.753443094    -0.281980537
 C       -4.031784048     9.650557560     0.117016182
 C       -3.486041606     8.368511999     0.108974473
Si       -4.007735263    12.441278463    -0.243585691
 C       -4.074300245    13.250891032    -1.880175952
 C       -3.663036166    12.777226781    -3.063810735
 C       -3.776894587    13.539664587    -4.310761540
 C       -3.325795144    12.981692124    -5.513192674
 C       -3.420714658    13.680163841    -6.709508060
 C       -4.067370689    14.929142009    -6.761419307
 C       -4.541867862    15.482827956    -5.554098705
 C       -4.370330744    14.806584979    -4.356190115
 N       -4.190681215    15.677465874    -7.948514480
 C       -3.769055292    15.072327071    -9.218894638
 C       -5.420534761    16.482290242    -8.072649715
 C       -4.651657685    13.909577243    -9.705685256
 C       -4.233722432    13.380229903   -11.090749346
 N       -2.806295577    13.026108894   -11.262232596
 C       -2.204896044    12.428565167   -10.124751019
 C       -2.771635449    11.237166440    -9.631240469
 C       -2.222351788    10.613127554    -8.522488727
 C       -1.107539193    11.157304109    -7.866707134
 C       -0.537407477    12.327176931    -8.374194074
 C       -1.056925559    12.946308500    -9.504842958
 C       -2.024709813    14.082611545   -11.927113381
 C       -0.560383118    10.463956602    -6.699088228
 C        0.498698615    10.899061754    -6.003997498
Si        1.212873814    10.063432240    -4.541043726
 C        0.257016333     8.533142772    -4.166621962
 C       -1.115164734     8.606188603    -3.898513305
 C       -1.841910211     7.450950848    -3.614817123
 C       -1.219163307     6.199539208    -3.613567951
 C        0.152145316     6.128521686    -3.889403004
 C        0.883376730     7.281997790    -4.160114850
 C       -1.929819904     4.960509287    -3.324229211
 C       -3.240154938     4.868185792    -3.042279032
 C       -3.921867192     3.609958595    -2.756731625
 C       -3.251822577     2.382292123    -2.754625627
 C       -3.932436857     1.199273285    -2.477935180
 C       -5.298205950     1.221068446    -2.170246475
 C       -5.968852858     2.448522094    -2.159891241
 C       -5.287678831     3.629181112    -2.451165147
Si       -6.161112909    -0.368680247    -1.810162132
 C       -6.020940781    -1.477995689    -3.307472337
 C       -5.319372452    -1.166776565    -0.342151159
 C       -7.963547220    -0.078940643    -1.411746628
 C        3.007917393     9.681429274    -4.883649189
 C        1.072414425    11.222858961    -3.081107985
 C       -5.756384506    12.382110966     0.419193768
 C       -2.952795122    13.500136747     0.882744706
 C       -0.634515996    -0.864646699    -1.531823357
 C       -0.613635429    -0.892885340     1.523948008
 H        1.185851463     2.657537672    -0.754156267
 H        0.295404037     4.918802523    -0.743910997
 H       -3.470249341     3.470815843     0.755030741
 H       -2.629208198     1.191555024     0.745432034
 H       -3.249516615     5.751881203     0.395891901
 H       -0.542431039     6.786955320    -0.700546927
 H       -0.382673774     9.113021003    -1.049039631
 H       -1.302842559    11.371649272    -1.009229861
 H       -5.071032650     9.747416171     0.442719964
 H       -4.101986388     7.528560607     0.425716513
 H       -4.522973492    14.258307163    -1.810028618
 H       -3.211434780    11.784984934    -3.188490945
 H       -2.858787991    11.993605944    -5.514630606
 H       -2.999179278    13.232618398    -7.607964965
 H       -5.021949717    16.456266183    -5.548499885
 H       -4.723107310    15.274979226    -3.436154712
 H       -5.501445569    16.912064751    -9.083707054
 H       -5.368907813    17.331489124    -7.367121588
 H       -6.336709729    15.906039921    -7.865640399
 H       -2.486246971    14.301685929   -12.905963303
 H       -1.006517764    13.707304121   -12.135482363
 H       -1.947295252    15.021923395   -11.358907652
 H       -3.636122072    10.806963187   -10.131002233
 H       -2.667226932     9.687438892    -8.154467990
 H        0.333265835    12.767208507    -7.885460178
 H       -0.576847196    13.845338956    -9.879737993
 H       -1.101141841     9.540234553    -6.447953175
 H        1.021714347    11.828078530    -6.281811104
 H       -1.656490237     9.558191879    -3.885271503
 H       -2.904560915     7.532140121    -3.389631891
 H        0.653710193     5.162721550    -3.893408324
 H        1.950301209     7.164401917    -4.366064752
 H       -1.303342063     4.062078593    -3.342396632
 H       -3.873837104     5.758065777    -3.011431233
 H       -2.184231023     2.341391397    -2.969082997
 H       -3.355335177     0.270435623    -2.504021177
 H       -7.033618288     2.524052834    -1.926599411
 H       -5.826195054     4.574800987    -2.440413653
 H       -3.741608917    15.878380461    -9.987211204
 H       -2.711955535    14.736820485    -9.092747791
 H       -4.625460387    13.084316210    -8.964642486
 H       -5.709689296    14.228984113    -9.744419020
 H       -4.815036193    12.451760090   -11.310939210
 H       -4.520094924    14.113765098   -11.875065095
 H        2.268777352    -1.026796579     0.074568945
 H        2.269210112     0.573090469     0.855965997
 H        2.279357543     0.446656231    -0.922430753
 H       -6.481837435    -2.464019274    -3.123148443
 H       -4.966860867    -1.648819226    -3.589310096
 H       -6.527049960    -1.032462873    -4.183140269
 H       -4.247469671    -1.347603880    -0.538821436
 H       -5.387181539    -0.523101636     0.553556652
 H       -5.782013104    -2.137016200    -0.091972905
 H       -8.494107096     0.392398195    -2.258152163
 H       -8.480169456    -1.029206670    -1.187709992
 H       -8.084006946     0.577534374    -0.531831259
 H        3.118653443     9.015606679    -5.758711779
 H        3.580238239    10.601316763    -5.099595226
 H        3.490203890     9.188290506    -4.021614806
 H        0.019879220    11.510665238    -2.897710669
 H        1.459772109    10.755374627    -2.158713354
 H        1.643306653    12.152969863    -3.249576537
 H       -6.414796370    11.783047261    -0.235131466
 H       -5.791545481    11.941278633     1.430799063
 H       -6.192231991    13.394859584     0.484622320
 H       -1.923852118    13.599071871     0.493068129
 H       -3.367832918    14.517215420     0.988738195
 H       -2.884533224    13.058674542     1.893056559
 H       -0.331901970    -0.330870024    -2.450469311
 H       -0.242657390    -1.894409701    -1.600641991
 H       -1.737646297    -0.927292318    -1.529650869
 H       -0.302844647    -0.366620875     2.444822458
 H       -1.715110655    -0.966382249     1.540540060
 H       -0.211199206    -1.919516178     1.576368513

