139   

Si        0.000000000     0.000000000     0.000000000
 C        1.869533443     0.000000000     0.000000000
 C       -0.611711850     1.741930248     0.000000000
 C       -0.021035407     2.691446772    -0.842090449
 C       -0.473223730     4.009930607    -0.851952125
 C       -1.530798565     4.408992191    -0.029143320
 C       -2.123508262     3.456363850     0.809122340
 C       -1.670778028     2.138998378     0.824483575
 C       -2.036901814     5.777105955    -0.006285884
 C       -1.553777686     6.782040307    -0.756241804
 C       -2.058853460     8.150683839    -0.734472840
 C       -3.115688998     8.548141941     0.088178114
 C       -3.567964276     9.867685961     0.078060382
 C       -2.963844130    10.815796270    -0.751278727
 C       -1.901404594    10.422187688    -1.575803281
 C       -1.456079357     9.103882366    -1.566625893
Si       -3.534540014    12.569588814    -0.791640930
 C       -2.002181224    13.567683016    -0.704361975
 C       -1.591687646    14.444928245    -1.628540673
 C       -0.359367751    15.227320657    -1.526852984
 C       -0.035887485    16.114847273    -2.560018999
 C        1.119160443    16.880651271    -2.515157951
 C        2.053522438    16.703251177    -1.473155958
 C        1.741032871    15.787553952    -0.446511210
 C        0.545329553    15.085254609    -0.469293598
 N        3.228715835    17.469446699    -1.411149942
 C        3.660880637    18.182905750    -2.624979392
 C        4.337115329    16.905135404    -0.622638982
 C        3.910748526    17.299381062    -3.860342151
 C        5.329144778    16.701399093    -3.904216591
 N        5.382171040    15.300266450    -4.376242441
 C        4.854160873    14.380153019    -3.414156398
 C        5.695119039    14.071100271    -2.331173599
 C        5.264696505    13.189264925    -1.352685148
 C        3.998647887    12.588739488    -1.429885483
 C        3.173333150    12.893722556    -2.514922942
 C        3.594556680    13.777246894    -3.505037276
 C        4.850333108    15.133937107    -5.740437997
 C        3.604967857    11.665706223    -0.362236201
 C        2.432193426    11.022450546    -0.304800555
Si        1.957366479     9.869747593     1.041347660
 C        0.441320961    10.526519569     1.854716573
 C        0.265179208    11.907764639     1.990206404
 C       -0.878114398    12.416102549     2.604001155
 C       -1.857427753    11.555806044     3.108591610
 C       -1.675433108    10.173484983     2.975625588
 C       -0.539932306     9.662014805     2.352210634
 C       -3.069466114    12.042659601     3.758442669
 C       -3.363278254    13.340483964     3.947863286
 C       -4.574085564    13.830501946     4.597153197
 C       -5.561961832    12.976266913     5.093001873
 C       -6.704857997    13.488623083     5.707221392
 C       -6.886023251    14.868748300     5.834241803
 C       -5.897756244    15.728354369     5.334978514
 C       -4.757629198    15.214246011     4.724235954
Si       -8.386503937    15.578765301     6.641488699
 C       -7.852365502    16.546837065     8.148352084
 C       -9.244588174    16.708515477     5.424590976
 C       -9.565889217    14.225343900     7.161968667
 C        1.635816308     8.190399779     0.295098497
 C        3.299940500     9.735751157     2.333984637
 C       -4.460179015    12.853380102    -2.390312410
 C       -4.645555856    12.987528293     0.642405775
 C       -0.636183597    -0.846306141    -1.539768225
 C       -0.610236556    -0.911953381     1.513231991
 H        0.806577623     2.438799963    -1.510912068
 H        0.005995765     4.729905079    -1.513103402
 H       -2.948774928     3.745005163     1.457472261
 H       -2.171527431     1.441136978     1.501088730
 H       -2.866179232     5.947104579     0.686399558
 H       -0.728504136     6.608581897    -1.453515612
 H       -3.598783083     7.827552771     0.744675947
 H       -4.397211389    10.123743635     0.743222613
 H       -1.386269458    11.128817761    -2.234830674
 H       -0.632176496     8.813800650    -2.216208125
 H       -1.410294360    13.375619298     0.207222782
 H       -2.160510535    14.652065623    -2.543903248
 H       -0.715926418    16.233361957    -3.403911493
 H        1.294479860    17.609054947    -3.299903507
 H        2.430611000    15.624633851     0.376157309
 H        0.320925190    14.395212243     0.346787719
 H        5.243135624    17.522017925    -0.727858685
 H        4.586013969    15.866895355    -0.908635954
 H        4.061449532    16.921028868     0.447971144
 H        5.465814995    15.736945575    -6.430246358
 H        3.797834504    15.429086925    -5.866687459
 H        4.957747139    14.077306956    -6.042859651
 H        6.686178497    14.518302970    -2.279866046
 H        5.924693284    12.954543334    -0.517838901
 H        2.180139577    12.446960777    -2.589372625
 H        2.930985180    14.005060577    -4.334786218
 H        4.382763111    11.547094318     0.404476548
 H        1.662588123    11.157697893    -1.081787582
 H        1.004355698    12.624472145     1.617011273
 H       -1.000273230    13.494461184     2.693454717
 H       -2.430231781     9.487876973     3.354827024
 H       -0.458311426     8.574828456     2.261292813
 H       -3.752816765    11.259821469     4.099479725
 H       -2.677246380    14.123221234     3.608416476
 H       -5.446249598    11.897411854     5.005819531
 H       -7.441584254    12.770711561     6.077619817
 H       -5.985957290    16.816232530     5.405908182
 H       -4.001083739    15.897264186     4.340963000
 H        2.871833936    18.938889860    -2.858393868
 H        4.570635577    18.775456691    -2.380711151
 H        3.164091404    16.476741740    -3.879996344
 H        3.721689642    17.885589636    -4.777382604
 H        5.981988763    17.300683058    -4.576851320
 H        5.804936482    16.738665765    -2.899469783
 H        2.270071593    -1.028575694     0.035653285
 H        2.268509891     0.543021752     0.876063274
 H        2.278398449     0.484000013    -0.904130341
 H       -8.717379154    17.003086984     8.660971109
 H       -7.154753231    17.360325289     7.881242640
 H       -7.336436883    15.896876709     8.878379594
 H       -8.588045336    17.538112447     5.107882671
 H       -9.544856710    16.159581229     4.513591576
 H      -10.156242773    17.152592540     5.861579376
 H       -9.099774862    13.538973452     7.891093566
 H      -10.470119579    14.646380828     7.637057623
 H       -9.897817350    13.623398960     6.297339120
 H        0.732050016     8.204728509    -0.342917850
 H        2.483387337     7.855375728    -0.328414499
 H        1.474637881     7.424700570     1.075250281
 H        3.518265047    10.715135331     2.795553106
 H        3.000544918     9.050197108     3.147411768
 H        4.239257878     9.347715414     1.902765137
 H       -3.832151301    12.622636300    -3.268778430
 H       -5.357566661    12.211872850    -2.449877968
 H       -4.794468982    13.901955893    -2.480013296
 H       -4.167659428    12.743409503     1.610330817
 H       -4.887719444    14.065980383     0.662627647
 H       -5.600138105    12.435194287     0.594701416
 H       -0.289543798    -0.333071005    -2.454553179
 H       -0.293994927    -1.894657398    -1.594010737
 H       -1.740964374    -0.853550754    -1.565785681
 H       -0.303522169    -0.399047379     2.442561944
 H       -1.711252828    -0.995690817     1.523240802
 H       -0.202000085    -1.937815380     1.551692070

