139   

Si        0.000000000     0.000000000     0.000000000
 C        1.869528583     0.000000000     0.000000000
 C       -0.633173255     1.734571770     0.000000000
 C        0.111007757     2.767340485    -0.580286247
 C       -0.369852613     4.076333883    -0.578714589
 C       -1.606273014     4.382361490    -0.003594116
 C       -2.352728465     3.346109413     0.572591648
 C       -1.874556954     2.038190229     0.573246514
 C       -2.149802427     5.736056516     0.021679852
 C       -1.538249347     6.816515641    -0.492695197
 C       -2.088410529     8.167358467    -0.463497759
 C       -1.350523541     9.211829422    -1.035756181
 C       -1.838434704    10.517255856    -1.029913383
 C       -3.071183120    10.808679063    -0.436682773
 C       -3.806645713     9.767971663     0.142640036
 C       -3.319905988     8.462630721     0.129298360
Si       -3.757426356    12.523344667    -0.405108291
 C       -5.560977158    12.333369170    -0.669546093
 C       -6.522826883    12.721812378     0.177390944
 C       -7.954241656    12.548720309    -0.077499290
 C       -8.873576553    12.994786414     0.882877099
 C      -10.237815165    12.853482949     0.687687795
 C      -10.727810821    12.187815384    -0.455354994
 C       -9.807772729    11.732141387    -1.415402080
 C       -8.445660480    11.937345702    -1.234350082
 N      -12.124180277    12.061223493    -0.623665036
 C      -12.894008467    11.607351600     0.551419873
 C      -12.578380594    11.428203710    -1.873734596
 C      -12.638033533    10.144559036     0.960901214
 C      -11.693755210    10.036848471     2.175577365
 N      -10.946041016     8.762288813     2.259427945
 C       -9.949051904     8.669699900     1.234742864
 C       -8.773828598     9.411253364     1.443858345
 C       -7.759722101     9.376576162     0.500690677
 C       -7.873691381     8.584941483    -0.652396360
 C       -9.038218314     7.838313364    -0.841716417
 C      -10.070771049     7.873524852     0.091285307
 C      -11.827584104     7.587030294     2.371952575
 C       -6.770147181     8.586278381    -1.616905690
 C       -6.767433354     7.872426612    -2.749092133
Si       -5.415189344     7.839828199    -3.985153817
 C       -6.152615940     8.436615283    -5.569073450
 C       -7.034758971     9.525791783    -5.542746655
 C       -7.606053849     9.997715868    -6.720766401
 C       -7.306182664     9.399945641    -7.952597312
 C       -6.424027542     8.316415447    -7.974595056
 C       -5.852439960     7.838059051    -6.795095284
 C       -7.930515986     9.930796962    -9.160099482
 C       -7.732814239     9.449807557   -10.399266153
 C       -8.357946335     9.981815921   -11.605836660
 C       -9.240131773    11.065545403   -11.582998340
 C       -9.815157227    11.541785647   -12.760880991
 C       -9.527663908    10.937273941   -13.988997445
 C       -8.644872626     9.849926198   -14.014473908
 C       -8.065759075     9.381599565   -12.837795391
Si      -10.283643306    11.560093918   -15.553849702
 C      -11.882845800    12.457073372   -15.188566921
 C       -9.074404146    12.730598850   -16.365767158
 C      -10.643469042    10.124983754   -16.696910031
 C       -4.029120714     9.002594175    -3.540620289
 C       -4.766370936     6.096594577    -4.113174218
 C       -3.360789572    13.310152730     1.238288649
 C       -3.062811256    13.547192714    -1.802207302
 C       -0.633089545    -0.856088258    -1.535371705
 C       -0.605026653    -0.900313538     1.522521525
 H        1.084785202     2.590352914    -1.045230995
 H        0.230816321     4.862213868    -1.033288364
 H       -3.319039310     3.562461701     1.025697063
 H       -2.501287909     1.272035291     1.038065849
 H       -3.129591461     5.826088033     0.502252003
 H       -0.561040247     6.728721303    -0.975256491
 H       -0.386354784     9.004018881    -1.495468298
 H       -1.223673587    11.289361417    -1.499435957
 H       -4.773080894     9.940488991     0.629758869
 H       -3.913936718     7.669533118     0.582392601
 H       -5.810415750    11.855408363    -1.632383996
 H       -6.308710190    13.205626995     1.139008062
 H       -8.513636141    13.479532327     1.790653917
 H      -10.931366437    13.258011196     1.419808953
 H      -10.142428011    11.203916493    -2.303320170
 H       -7.753750423    11.582298191    -2.001592726
 H      -13.678236648    11.489360477    -1.935492419
 H      -12.282762712    10.371375721    -1.975288928
 H      -12.177043297    11.994828924    -2.733753939
 H      -12.420873271     7.684461088     3.297637406
 H      -11.206224535     6.679843074     2.473923897
 H      -12.519855653     7.444536962     1.529370817
 H       -8.674063026    10.014869142     2.344559093
 H       -6.863952131     9.980183476     0.660434534
 H       -9.150959557     7.217173879    -1.730734250
 H      -10.967648955     7.286615269    -0.080257592
 H       -5.932297144     9.233154974    -1.319972385
 H       -7.620751136     7.228803893    -3.018520841
 H       -7.307147187    10.029540924    -4.608777943
 H       -8.292608567    10.841509778    -6.682463677
 H       -6.175155244     7.833913890    -8.917911913
 H       -5.172216372     6.985726779    -6.873528698
 H       -8.598540599    10.781021549    -8.992711206
 H       -7.064835951     8.599866362   -10.566786323
 H       -9.485096924    11.550488344   -10.639660687
 H      -10.495289896    12.394113006   -12.678957806
 H       -8.382891858     9.337394823   -14.944226877
 H       -7.380477539     8.536870327   -12.878509175
 H      -12.687810319    12.297064717     1.399728487
 H      -13.973633697    11.751090132     0.313523486
 H      -13.594975092     9.641553759     1.184063922
 H      -12.203917566     9.587229123     0.106398719
 H      -10.944323825    10.863068881     2.152902387
 H      -12.264475289    10.153915248     3.122030969
 H        2.268459800    -1.027081865     0.078330732
 H        2.269476466     0.577193382     0.853387018
 H        2.279404126     0.443083168    -0.924404335
 H      -12.385005338    12.771940038   -16.120669079
 H      -11.714487084    13.364455608   -14.582492328
 H      -12.587082620    11.810140410   -14.634907100
 H       -8.842682937    13.588427795   -15.708892736
 H       -8.118951721    12.225817838   -16.595852112
 H       -9.476527258    13.133050292   -17.311959870
 H      -11.298543858     9.380571540   -16.208987972
 H      -11.153537471    10.464396822   -17.615858327
 H       -9.720052410     9.604277525   -17.004792253
 H       -4.376664623    10.049983696    -3.486186876
 H       -3.585880667     8.748657494    -2.557206264
 H       -3.215737714     8.963790979    -4.286378872
 H       -5.550088016     5.388015668    -4.433666907
 H       -3.932199881     6.025271145    -4.833159995
 H       -4.384206714     5.746643865    -3.134854697
 H       -3.763866042    12.717941059     2.079933544
 H       -2.269448037    13.393078483     1.390473999
 H       -3.783181613    14.328166684     1.311437388
 H       -3.213418088    13.055598155    -2.780676464
 H       -3.553618017    14.536560521    -1.852447316
 H       -1.979926056    13.723059005    -1.679090413
 H       -0.287509613    -0.345494813    -2.452227718
 H       -0.285962008    -1.903118120    -1.584754666
 H       -1.737570852    -0.868186983    -1.562689755
 H       -0.310899097    -0.367540865     2.445096546
 H       -1.704594794    -0.999082679     1.530671321
 H       -0.181924503    -1.919107318     1.578630883

