139   

Si        0.000000000     0.000000000     0.000000000
 C        1.869446855     0.000000000     0.000000000
 C       -0.618064150     1.739811312     0.000000000
 C        0.002051520     2.702792154    -0.804772338
 C       -0.454289002     4.019933205    -0.814450010
 C       -1.544740575     4.404274149    -0.028405949
 C       -2.167142561     3.438107151     0.772194510
 C       -1.711097756     2.121782913     0.786512582
 C       -2.056214358     5.770893096    -0.007140203
 C       -1.548369221     6.788128443    -0.723538197
 C       -2.058626569     8.155102562    -0.703378883
 C       -3.149150781     8.541488064     0.082126279
 C       -3.603369672     9.858855775     0.070633873
 C       -2.977834548    10.820725646    -0.732764004
 C       -1.887458874    10.436595705    -1.520320866
 C       -1.433535656     9.119216049    -1.503962033
Si       -3.605546415    12.555803266    -0.723423808
 C       -3.449645265    13.269933360     0.956167940
 C       -2.952320012    12.624124385     2.019350853
 C       -2.833028929    13.206199022     3.356879783
 C       -2.294147103    12.425199755     4.389593854
 C       -2.159507673    12.928331073     5.673254606
 C       -2.517820605    14.263245692     5.960454232
 C       -3.057792685    15.047395367     4.923944129
 C       -3.230091834    14.512496400     3.653462079
 N       -2.375178510    14.760534825     7.270902457
 C       -1.233200721    14.248506047     8.051838668
 C       -2.581766678    16.207071835     7.458909704
 C        0.125543836    14.568227767     7.409097992
 C        1.273513695    13.989212725     8.250997873
 N        2.603743078    14.254145700     7.671288988
 C        2.970129364    15.606768476     7.524771963
 C        2.549192782    16.555237296     8.481702557
 C        2.901424924    17.888735345     8.351285730
 C        3.723332890    18.322890122     7.301223700
 C        4.164953502    17.377241556     6.372274647
 C        3.804781260    16.039713855     6.477480782
 C        2.915445081    13.356309581     6.545475622
 C        4.064260592    19.743418086     7.211152588
 C        4.838834487    20.274413084     6.255500691
Si        5.269774521    22.049786270     6.136021206
 C        4.475281759    22.970625363     7.524425449
 C        3.219238549    23.564293477     7.361071470
 C        2.620900255    24.259487408     8.411348195
 C        3.257114145    24.366507800     9.651178361
 C        4.511647704    23.764490818     9.815414230
 C        5.113724128    23.073628981     8.766811140
 C        2.668857124    25.083729142    10.777721356
 C        1.476362904    25.702806530    10.751200122
 C        0.887160688    26.420290364    11.877090614
 C        1.523268306    26.532625650    13.115918843
 C        0.922716089    27.228489007    14.165423023
 C       -0.328827626    27.827836793    13.997654678
 C       -0.969731482    27.716185568    12.756084824
 C       -0.368587953    27.020549169    11.710869911
Si       -1.150496339    28.755501720    15.366019139
 C       -0.034798411    28.860063537    16.861926470
 C       -1.544517914    30.483252223    14.771831316
 C       -2.725609000    27.862355494    15.828672357
 C        7.127703766    22.229998824     6.228543246
 C        4.667490555    22.706624376     4.493165851
 C       -2.633269028    13.624875469    -1.908127328
 C       -5.406833651    12.549378851    -1.220018376
 C       -0.635125475    -0.848218346    -1.539083734
 C       -0.608349960    -0.910785058     1.514788304
 H        0.856985713     2.462480597    -1.443122325
 H        0.048129955     4.750790551    -1.445755007
 H       -3.018316655     3.715327573     1.391541837
 H       -2.236242555     1.412853775     1.432439315
 H       -2.914483653     5.927879606     0.652896349
 H       -0.690932063     6.630047773    -1.384432696
 H       -3.653786407     7.810989281     0.711929657
 H       -4.460525532    10.101932616     0.706915798
 H       -1.359903640    11.144628919    -2.165213485
 H       -0.583196242     8.839684146    -2.123066505
 H       -3.806724685    14.308303179     1.034480520
 H       -2.584829714    11.588698862     1.965410156
 H       -1.985150396    11.399165891     4.184182567
 H       -1.772389139    12.284493139     6.457709188
 H       -3.352144366    16.077011847     5.100629977
 H       -3.666467210    15.137487091     2.873005396
 H       -2.460622545    16.466972677     8.524159462
 H       -3.620942377    16.464300069     7.185535693
 H       -1.890266733    16.831436101     6.869183155
 H        2.593298956    12.328953020     6.785478198
 H        4.010426014    13.320313072     6.402069140
 H        2.438988247    13.655948314     5.597329821
 H        1.940353525    16.247180216     9.326745169
 H        2.544287694    18.608954310     9.088977349
 H        4.804903138    17.687173330     5.544835048
 H        4.168137579    15.341224535     5.730469724
 H        3.618115153    20.346604092     8.015460478
 H        5.275157073    19.651000023     5.460376646
 H        2.670278249    23.510922523     6.416470188
 H        1.646359636    24.718649706     8.256214431
 H        5.024200784    23.835756833    10.772968120
 H        6.093213061    22.624057592     8.954689707
 H        3.279714068    25.090194470    11.685346520
 H        0.865889406    25.696878586     9.843303892
 H        2.498791112    26.075647829    13.272749286
 H        1.469643648    27.282566844    15.110784430
 H       -1.949401701    28.164113391    12.566846942
 H       -0.881464980    26.944436584    10.753823535
 H       -1.289843859    14.676659796     9.077993459
 H       -1.359764464    13.149193868     8.178836405
 H        0.163981504    14.164044605     6.378308741
 H        0.249842396    15.663110239     7.296592467
 H        1.251285290    14.403675125     9.284555521
 H        1.155366218    12.888263591     8.367529207
 H        2.269420823    -1.028413796     0.046964734
 H        2.268754930     0.552119906     0.870224204
 H        2.278956072     0.473346246    -0.909432322
 H       -0.513540153    29.433534595    17.675943902
 H        0.918673787    29.363230854    16.620736951
 H        0.204421605    27.858482389    17.261325928
 H       -0.627231749    31.020164079    14.468458538
 H       -2.221560803    30.468896535    13.899657681
 H       -2.032704765    31.079019133    15.563109160
 H       -2.514893962    26.835814713    16.179749986
 H       -3.263525221    28.387412199    16.637498944
 H       -3.412932415    27.781100247    14.968069017
 H        7.537636411    21.758147856     7.139459873
 H        7.620970659    21.754976262     5.362042679
 H        7.425029018    23.294004837     6.239612632
 H        3.586984750    22.524113199     4.353351726
 H        4.837806996    23.795103539     4.411601937
 H        5.193366789    22.223306698     3.650668194
 H       -1.567131332    13.676495512    -1.621336756
 H       -2.687513071    13.236939231    -2.940562418
 H       -3.019372627    14.659846703    -1.922579517
 H       -6.017322244    11.952777593    -0.518383678
 H       -5.825299663    13.570975771    -1.238160867
 H       -5.540517751    12.114855534    -2.227110460
 H       -0.290001546    -0.334521224    -2.454223345
 H       -0.290313145    -1.895750768    -1.593189614
 H       -1.739850826    -0.858284007    -1.564867592
 H       -0.307892738    -0.391940868     2.442925079
 H       -1.708743201    -1.002078888     1.522488292
 H       -0.193161559    -1.933615831     1.558326342

