139   

Si        0.000000000     0.000000000     0.000000000
 C        1.869675987     0.000000000     0.000000000
 C       -0.632756955     1.734791194     0.000000000
 C        0.131258277     2.773129915    -0.543283344
 C       -0.347978464     4.082570372    -0.542511037
 C       -1.603340091     4.383942792    -0.007030878
 C       -2.369491303     3.342067256     0.531821167
 C       -1.892306432     2.033607860     0.534804073
 C       -2.143830915     5.739514778     0.014511316
 C       -1.508194840     6.821192466    -0.467070565
 C       -2.042559479     8.178814554    -0.448741833
 C       -3.295809617     8.490440123     0.084003031
 C       -3.766036630     9.804227208     0.079822289
 C       -2.992894589    10.833442633    -0.463783776
 C       -1.734917013    10.523835933    -1.000349967
 C       -1.266885959     9.213339523    -0.990384128
Si       -3.575260296    12.584064498    -0.490282142
 C       -2.457026696    13.628908667     0.516202504
 C       -1.377919610    13.180725878     1.171604248
 C       -0.489356490    14.022249960     1.973815877
 C        0.610058740    13.429813830     2.612096660
 C        1.482588568    14.179716413     3.383256127
 C        1.313938698    15.577184975     3.500374254
 C        0.211570150    16.173081664     2.856916645
 C       -0.681097074    15.397545868     2.128260996
 N        2.201687116    16.330744249     4.283358085
 C        3.578063588    15.830582752     4.441364841
 C        2.099642057    17.794769572     4.195687245
 C        4.357096815    15.633545600     3.129700169
 C        5.008752017    16.918134456     2.589816532
 N        6.271489197    17.307227590     3.243453299
 C        7.297699163    16.349543698     3.293572639
 C        7.454733547    15.438569216     2.225619232
 C        8.460750694    14.487513701     2.257563190
 C        9.376427708    14.433742669     3.319059971
 C        9.238030528    15.355500803     4.359577496
 C        8.223526810    16.304818698     4.353070368
 C        6.100289781    18.171701879     4.420044537
 C       10.419079078    13.407065166     3.300043542
 C       11.348305059    13.254811875     4.253024420
Si       12.658259888    11.974377304     4.241151305
 C       12.506738030    10.930794902     2.727120838
 C       12.260546205     9.555829441     2.802980400
 C       12.150939896     8.792654869     1.642302707
 C       12.279665970     9.384685342     0.379706954
 C       12.523805763    10.759660944     0.306593532
 C       12.636731842    11.525200601     1.465559689
 C       12.156953323     8.543407009    -0.806247310
 C       12.262137141     8.984281468    -2.071374814
 C       12.139355112     8.142626400    -3.257194153
 C       11.895218562     6.767715908    -3.183700275
 C       11.785053423     6.000932892    -4.342238030
 C       11.916051766     6.593695550    -5.604151533
 C       12.160104693     7.969285679    -5.680307644
 C       12.270381956     8.733295285    -4.520214321
Si       11.765109322     5.551681554    -7.120434589
 C       10.070103225     4.764282864    -7.139395913
 C       11.982434095     6.584472078    -8.662916737
 C       13.084453185     4.228721802    -7.072904144
 C       14.329756045    12.809612850     4.234807657
 C       12.481296981    10.938757159     5.786441375
 C       -3.566766433    13.199324269    -2.254816483
 C       -5.301271202    12.723170809     0.212215593
 C       -0.632992654    -0.857033631    -1.534753103
 C       -0.605592343    -0.897710575     1.523815600
 H        1.119905346     2.600699369    -0.977729862
 H        0.268618789     4.872801795    -0.967495120
 H       -3.350143030     3.554377396     0.953922321
 H       -2.534479060     1.263092587     0.970182091
 H       -3.137194555     5.829836176     0.463519313
 H       -0.514647854     6.728143297    -0.916103485
 H       -3.918192654     7.706135835     0.510774786
 H       -4.752427252     9.987327313     0.514585022
 H       -1.086617998    11.289006670    -1.439087647
 H       -0.287411197     8.991306884    -1.410067891
 H       -2.744547740    14.690714103     0.548010134
 H       -1.074106982    12.123234768     1.158983644
 H        0.775562131    12.355437774     2.513309027
 H        2.300527083    13.680027880     3.894745755
 H        0.036240030    17.241029548     2.928060543
 H       -1.537097412    15.881992868     1.656317894
 H        2.866380290    18.270250280     4.829046725
 H        1.117108876    18.111002511     4.594982084
 H        2.203221703    18.181903064     3.168549958
 H        5.278304632    18.886183036     4.248712414
 H        7.018659163    18.773084452     4.560489947
 H        5.897133051    17.618192994     5.351549114
 H        6.783923773    15.476285982     1.371770941
 H        8.549520467    13.777667076     1.433329660
 H        9.936304228    15.336395135     5.197610604
 H        8.153442820    16.998454751     5.183979301
 H       10.366082855    12.755990000     2.414718741
 H       11.378252877    13.916614647     5.132040136
 H       12.147138337     9.038909241     3.759763112
 H       11.961389957     7.723859399     1.721882647
 H       12.628559243    11.244402262    -0.662449816
 H       12.830144489    12.596048237     1.345210247
 H       11.966370285     7.486169604    -0.599190274
 H       12.453319747    10.041314288    -2.279082920
 H       11.789129550     6.283389336    -2.214551848
 H       11.594104502     4.930818167    -4.220942838
 H       12.271376905     8.485985186    -6.637481035
 H       12.460886571     9.802003258    -4.600793871
 H        4.128652249    16.515270861     5.122932584
 H        3.519363495    14.859887580     4.991580155
 H        5.133888629    14.855874454     3.282538353
 H        3.683196730    15.215829665     2.353453184
 H        5.224968074    16.795716985     1.500412017
 H        4.296573395    17.769523375     2.651831862
 H        2.268455831    -1.026777162     0.082673295
 H        2.269723969     0.580639010     0.850944757
 H        2.279456479     0.438809661    -0.926515222
 H        9.930925394     4.130834047    -8.033033167
 H        9.273452911     5.530316182    -7.146409598
 H        9.907920070     4.128670396    -6.251028444
 H       11.208332427     7.368888353    -8.737802443
 H       12.968932126     7.080947920    -8.683514342
 H       11.908365472     5.961337324    -9.572286355
 H       12.983003004     3.585975217    -6.180647482
 H       13.032199489     3.576268772    -7.962132866
 H       14.095729320     4.673976733    -7.044974810
 H       14.453141664    13.459268454     3.349543330
 H       14.470986020    13.438982187     5.130929455
 H       15.146385691    12.065479813     4.215959632
 H       11.489367752    10.453628232     5.834248361
 H       13.248130678    10.145353109     5.831340654
 H       12.589189236    11.555444139     6.696607469
 H       -2.551190122    13.169430073    -2.688720754
 H       -4.218930042    12.578989565    -2.895696015
 H       -3.925814233    14.241239426    -2.321278615
 H       -5.332767363    12.399641726     1.268665136
 H       -5.665417850    13.765443850     0.177345136
 H       -6.018564263    12.102467213    -0.353103464
 H       -0.290303844    -0.344608885    -2.451811439
 H       -0.282925893    -1.902962450    -1.585575647
 H       -1.737448316    -0.872164119    -1.560675580
 H       -0.307355718    -0.365596706     2.445509024
 H       -1.705550675    -0.991280644     1.534465148
 H       -0.186831235    -1.918224337     1.579668103

