139   

Si        0.000000000     0.000000000     0.000000000
 C        1.869232013     0.000000000     0.000000000
 C       -0.649227427     1.728280512     0.000000000
 C        0.132346422     2.794050782     0.457531127
 C       -0.368941988     4.095588338     0.452743917
 C       -1.662770909     4.360997653    -0.003685299
 C       -2.446227855     3.291480569    -0.457356582
 C       -1.948175437     1.991214371    -0.454313993
 C       -2.229800869     5.705254720    -0.027468417
 C       -1.587956645     6.814514303     0.377071590
 C       -2.157905546     8.157598565     0.352004464
 C       -3.452620225     8.416871448    -0.105644088
 C       -3.958332258     9.716382146    -0.112413006
 C       -3.180199923    10.783247370     0.347236625
 C       -1.882783522    10.527266262     0.808794558
 C       -1.378779148     9.229431249     0.808562416
Si       -3.834901547    12.509021242     0.344833111
 C       -2.480538169    13.578707181    -0.263259222
 C       -1.898627825    14.593736352     0.388194812
 C       -0.815423231    15.398515835    -0.181535485
 C       -0.262943286    16.443887252     0.571189614
 C        0.762949402    17.226611370     0.065331908
 C        1.266586316    16.994119303    -1.232479555
 C        0.737145664    15.924142410    -1.972865578
 C       -0.257569889    15.120077339    -1.432423125
 N        2.312584710    17.805120824    -1.726236759
 C        2.203285470    19.247701432    -1.415148351
 C        2.733259358    17.545841640    -3.114555544
 C        0.830564619    19.886134582    -1.698928908
 C        0.648965579    20.320290271    -3.166591764
 N       -0.707223137    20.094073311    -3.717535684
 C       -0.968535308    18.705956255    -3.957182840
 C       -0.408208873    18.161066042    -5.125141984
 C       -0.612648404    16.824505931    -5.432298030
 C       -1.361857986    15.996022981    -4.583490256
 C       -1.931910030    16.553342327    -3.435149354
 C       -1.763857851    17.901585348    -3.133729960
 C       -1.758400872    20.793230537    -2.957262339
 C       -1.546313423    14.590350563    -4.957539614
 C       -2.238611049    13.702606157    -4.232494706
Si       -2.491148662    11.937509337    -4.667266001
 C       -4.309179064    11.672102700    -4.821910903
 C       -5.116076878    12.645346360    -5.420625739
 C       -6.490989100    12.447721413    -5.539080812
 C       -7.088969177    11.279579823    -5.056951284
 C       -6.278546159    10.308537964    -4.454394573
 C       -4.904287573    10.501400644    -4.337153143
 C       -8.523041715    11.030015089    -5.159084039
 C       -9.409568487    11.875182481    -5.711879686
 C      -10.843644625    11.624817922    -5.813621145
 C      -11.440546536    10.454885848    -5.333838728
 C      -12.815010900    10.256414146    -5.451676078
 C      -13.625522666    11.225349331    -6.055838631
 C      -13.030481848    12.396656233    -6.537201588
 C      -11.656292882    12.593055856    -6.416426674
Si      -15.442905328    10.933905686    -6.197363467
 C      -15.725908163     9.342545050    -7.135826933
 C      -16.161679922    10.799771777    -4.477396440
 C      -16.273358514    12.339973422    -7.106696187
 C       -1.688665986    11.514062948    -6.299580630
 C       -1.757443877    10.872600420    -3.322680396
 C       -5.270347681    12.671250497    -0.838833303
 C       -4.374208921    12.960691677     2.072496900
 C       -0.601932616    -0.896386534    -1.526482591
 C       -0.629829413    -0.862784739     1.533122125
 H        1.151646997     2.649331644     0.826258327
 H        0.261095974     4.907848666     0.811238430
 H       -3.457044142     3.475947030    -0.816463659
 H       -2.606421199     1.198261780    -0.820057034
 H       -3.253292497     5.762371648    -0.409885903
 H       -0.565040712     6.757993655     0.760811060
 H       -4.078380487     7.602092620    -0.464640418
 H       -4.975736346     9.859201293    -0.488384021
 H       -1.228585348    11.326417560     1.172891070
 H       -0.367470069     9.047967621     1.167841734
 H       -2.143640606    13.296880756    -1.276219356
 H       -2.194932025    14.906385487     1.396032974
 H       -0.646832575    16.651348560     1.569935992
 H        1.187155308    18.016510643     0.678514570
 H        1.094137282    15.705135866    -2.975742233
 H       -0.620758986    14.273141809    -2.020736439
 H        3.566644098    18.215240473    -3.382871641
 H        1.925111493    17.672717891    -3.855909955
 H        3.118271631    16.511872997    -3.185220207
 H       -1.561102080    21.878043521    -3.008035619
 H       -1.834847352    20.503785304    -1.898398318
 H       -2.734200862    20.613160299    -3.441946936
 H        0.170535648    18.801428598    -5.788046658
 H       -0.183935732    16.415716913    -6.346804621
 H       -2.530823369    15.934261476    -2.762713647
 H       -2.227288867    18.310547141    -2.239810813
 H       -1.048088045    14.327347019    -5.899703600
 H       -2.738776920    14.001793177    -3.295156636
 H       -4.704188740    13.583059963    -5.808099645
 H       -7.099172263    13.217378527    -6.010805997
 H       -6.725000716     9.392526683    -4.072524054
 H       -4.321751194     9.710368735    -3.854872861
 H       -8.851293276    10.072953705    -4.743023476
 H       -9.081624535    12.832033958    -6.129209035
 H      -10.831775736     9.685714280    -4.861839967
 H      -13.223831139     9.321907746    -5.056959394
 H      -13.612990005    13.187119401    -7.018183151
 H      -11.212493352    13.511344590    -6.797076900
 H        2.447193260    19.361143374    -0.331402047
 H        3.004361893    19.793781210    -1.958680415
 H        0.027404632    19.172333640    -1.417947073
 H        0.687155580    20.755455298    -1.031888798
 H        0.868219195    21.405758931    -3.276148802
 H        1.373889206    19.792257899    -3.824528617
 H        2.267264360    -1.028313380    -0.066997563
 H        2.279218241     0.452302206     0.920079242
 H        2.270079397     0.567035049    -0.859604917
 H      -16.803309610     9.130555400    -7.252092257
 H      -15.269794807     8.479456579    -6.619607598
 H      -15.284797857     9.392023810    -8.148081443
 H      -15.702662376     9.971135144    -3.909626475
 H      -15.993256491    11.727290602    -3.900395375
 H      -17.250650516    10.620102393    -4.509173881
 H      -15.869191837    12.456022637    -8.128210029
 H      -17.360414291    12.166213887    -7.200233997
 H      -16.137750123    13.300925508    -6.579253655
 H       -2.090434722    12.132378617    -7.121989788
 H       -0.595591174    11.667281396    -6.265361706
 H       -1.866644146    10.457407128    -6.569607053
 H       -2.363200400    10.886649200    -2.397907146
 H       -1.681847870     9.816736853    -3.639373179
 H       -0.739288361    11.206668527    -3.050560368
 H       -5.020592614    12.284406289    -1.845095910
 H       -6.156397503    12.116189624    -0.484586506
 H       -5.571004660    13.727653715    -0.963314314
 H       -3.537612531    12.886531765     2.790346554
 H       -4.764185249    13.993061857     2.116884244
 H       -5.174088458    12.288326559     2.431712455
 H       -0.297249848    -0.365856608    -2.446901323
 H       -0.187061807    -1.918594858    -1.579581718
 H       -1.702164507    -0.985030877    -1.542830248
 H       -0.284641528    -0.353426046     2.451026558
 H       -1.734165092    -0.877845212     1.561432317
 H       -0.279670595    -1.908867184     1.579590121

