139   

Si        0.000000000     0.000000000     0.000000000
 C        1.869226957     0.000000000     0.000000000
 C       -0.652030106     1.727124658     0.000000000
 C        0.149173402     2.805910699    -0.386832259
 C       -0.358240313     4.105225656    -0.381425178
 C       -1.677268524     4.355211942     0.006009553
 C       -2.480259637     3.272488943     0.389309726
 C       -1.976476123     1.974596117     0.384894802
 C       -2.252123694     5.696276976     0.027767737
 C       -1.594661297     6.817440548    -0.314069220
 C       -2.173649976     8.157008615    -0.290824676
 C       -1.375337620     9.243642525    -0.673097728
 C       -1.885027094    10.539563962    -0.666565578
 C       -3.210144541    10.777942228    -0.281507392
 C       -4.008983169     9.695670144     0.100692668
 C       -3.493792293     8.399860710     0.098259942
Si       -3.885984209    12.493386656    -0.272501924
 C       -5.714089214    12.394210958    -0.224076555
 C       -6.502607634    12.898070480     0.733851090
 C       -7.964316126    12.792866685     0.728164201
 C       -8.683192452    13.362902199     1.791208928
 C      -10.065594156    13.290943447     1.833034401
 C      -10.769182617    12.671880334     0.783117517
 C      -10.060038989    12.100650071    -0.279966706
 C       -8.669151617    12.148955857    -0.290778301
 N      -12.188288389    12.639850788     0.903003977
 C      -12.847924900    13.949080480     0.731797879
 C      -12.849657367    11.526597329     0.206030360
 C      -13.310996843    14.310636927    -0.691001303
 C      -12.178816839    14.781020166    -1.622050219
 N      -11.687000788    16.158315410    -1.423286222
 C      -10.583597199    16.271302926    -0.531039954
 C       -9.355048075    15.752897184    -0.982677811
 C       -8.233995970    15.824688244    -0.172625737
 C       -8.292690868    16.446879964     1.084912205
 C       -9.508745961    16.983761552     1.512402867
 C      -10.646231094    16.908390642     0.714188474
 C      -12.745561912    17.163541542    -1.245958512
 C       -7.076543997    16.494652293     1.901149865
 C       -7.012892577    17.060257208     3.113304467
Si       -5.525528320    17.150687346     4.178038807
 C       -5.143399664    18.927900342     4.486205932
 C       -5.616529159    19.914500639     3.614891821
 C       -5.328941207    21.259317715     3.845695500
 C       -4.557004445    21.646349923     4.944746823
 C       -4.080383620    20.654855414     5.812968264
 C       -4.368523150    19.311101777     5.587551420
 C       -4.231318255    23.041079232     5.225208593
 C       -4.625432402    24.083074494     4.473750416
 C       -4.301026598    25.478403669     4.752191332
 C       -3.532157290    25.869201306     5.852341501
 C       -3.246367731    27.214662842     6.080092542
 C       -3.717798563    28.200905713     5.206113877
 C       -4.487109834    27.811876901     4.103155557
 C       -4.776696360    26.467486980     3.881750012
Si       -3.333038569    29.979708183     5.517803530
 C       -1.589927181    30.140023086     6.174448203
 C       -3.477773998    30.962725983     3.934287810
 C       -4.549459494    30.632230062     6.777201644
 C       -5.917959394    16.277795291     5.782654681
 C       -4.048304251    16.347405587     3.368326878
 C       -3.206474674    13.402513659     1.209032724
 C       -3.403313108    13.388142976    -1.840020785
 C       -0.628548270    -0.865670518    -1.532018668
 C       -0.602855344    -0.892071853     1.528622154
 H        1.188579395     2.673426267    -0.699491715
 H        0.287244893     4.927794406    -0.684348152
 H       -3.510904340     3.445174011     0.694326871
 H       -2.650585180     1.170718174     0.693583200
 H       -3.296080869     5.740398064     0.352927601
 H       -0.551164672     6.775212436    -0.639345576
 H       -0.344394154     9.075703592    -0.978947651
 H       -1.215487355    11.347615589    -0.973596473
 H       -5.050686749     9.824610904     0.413814027
 H       -4.134776717     7.574163486     0.402739082
 H       -6.143077162    11.863397850    -1.090303644
 H       -6.109924767    13.433179230     1.609201634
 H       -8.149255117    13.870346042     2.596932192
 H      -10.616758144    13.715517929     2.670196984
 H      -10.585068007    11.617060447    -1.097779371
 H       -8.132032451    11.688873391    -1.120752680
 H      -13.910612861    11.498281733     0.508713882
 H      -12.388965260    10.578059864     0.537459182
 H      -12.798246278    11.571092180    -0.892571381
 H      -13.451544492    17.089088947    -2.090986656
 H      -12.289571165    18.169587861    -1.288168812
 H      -13.311910939    17.078488236    -0.305884539
 H       -9.297555746    15.289347844    -1.965777640
 H       -7.293336734    15.394380046    -0.521516108
 H       -9.578803957    17.471867326     2.485127100
 H      -11.579858305    17.330484697     1.072630767
 H       -6.211961315    16.019229374     1.418387924
 H       -7.901584043    17.528919031     3.567850815
 H       -6.223329718    19.670818564     2.736068092
 H       -5.712338672    22.009107244     3.155591407
 H       -3.477601388    20.935379564     6.674762918
 H       -3.971333272    18.582571550     6.299479686
 H       -3.621771224    23.197746656     6.119979980
 H       -5.234703879    23.925548619     3.578610528
 H       -3.149408335    25.120886839     6.544159848
 H       -2.642113044    27.458351202     6.958495809
 H       -4.881251753    28.537429823     3.386331486
 H       -5.377973336    26.185423712     3.019282883
 H      -13.735311143    13.933898912     1.409726413
 H      -12.171871418    14.747449119     1.117955702
 H      -13.819043900    13.445699469    -1.158204981
 H      -14.095175600    15.088615266    -0.622701008
 H      -11.318700603    14.075328488    -1.547344105
 H      -12.533929383    14.732853061    -2.679657063
 H        2.267147550    -1.027349211     0.081446716
 H        2.270924470     0.578944407     0.851177958
 H        2.278299155     0.438827556    -0.927025896
 H       -1.304646398    31.199857326     6.297681254
 H       -0.859983269    29.677408523     5.485459088
 H       -1.475724538    29.650383814     7.157268533
 H       -2.830706846    30.544313164     3.142265116
 H       -4.513191552    30.971351801     3.551055846
 H       -3.175064906    32.013865390     4.088515293
 H       -4.489833746    30.067156431     7.724681228
 H       -4.358713255    31.694808890     7.008817069
 H       -5.588864653    30.551136271     6.411177113
 H       -6.750947624    16.770831722     6.315604258
 H       -6.213473501    15.227423611     5.606411874
 H       -5.048885866    16.268526185     6.463212892
 H       -3.834430661    16.799428749     2.382523989
 H       -3.140196724    16.467568554     3.986303045
 H       -4.209745412    15.263851498     3.221409386
 H       -3.523130978    12.924280928     2.153993355
 H       -2.101647650    13.409546893     1.201231059
 H       -3.545852581    14.454324271     1.226251984
 H       -3.743819799    12.840291267    -2.737173391
 H       -3.849574919    14.398497449    -1.879769302
 H       -2.308496345    13.504602543    -1.920015736
 H       -0.285978348    -0.355531504    -2.450457916
 H       -0.274297772    -1.910400250    -1.578420209
 H       -1.732747959    -0.885145198    -1.559411546
 H       -0.289935584    -0.363716067     2.447641441
 H       -1.703778497    -0.970647115     1.549928442
 H       -0.196479028    -1.917689561     1.579973805

