139   

Si        0.000000000     0.000000000     0.000000000
 C        1.869531625     0.000000000     0.000000000
 C       -0.636663703     1.733196876     0.000000000
 C        0.114907617     2.771590808    -0.560216474
 C       -0.368978610     4.079436891    -0.558501368
 C       -1.616003395     4.379320801    -0.003470113
 C       -2.369705029     3.337481927     0.552847437
 C       -1.888392612     2.030670297     0.553697068
 C       -2.162229499     5.732369296     0.020574105
 C       -1.542040739     6.815943188    -0.476511575
 C       -2.086829071     8.169576836    -0.453274216
 C       -3.334084154     8.470732704     0.101641386
 C       -3.816393000     9.779010924     0.102508914
 C       -3.055784652    10.816340911    -0.446884567
 C       -1.806058577    10.518564513    -1.003932358
 C       -1.330521233     9.209582799    -1.009484750
Si       -3.686246561    12.550767958    -0.450041938
 C       -2.249501536    13.680192310    -0.578610612
 C       -2.041355544    14.563246383    -1.564052658
 C       -0.880992279    15.452908685    -1.637654089
 C       -0.770855995    16.337768249    -2.720290346
 C        0.306989402    17.199619464    -2.836305958
 C        1.351170918    17.170952491    -1.885506216
 C        1.242491864    16.281757484    -0.799490215
 C        0.131649362    15.456893216    -0.674913714
 N        2.436641855    18.052010279    -2.018481492
 C        2.867946118    18.400274946    -3.384106694
 C        3.537975027    17.911949668    -1.054792438
 C        3.206751293    17.204675873    -4.290871472
 C        4.607318274    16.615495908    -4.050489582
 N        5.708998754    17.321759980    -4.726768275
 C        5.643660310    17.452276519    -6.122532281
 C        4.996742688    16.462008727    -6.894242110
 C        4.926654966    16.581193735    -8.272453880
 C        5.532252043    17.654208947    -8.941887307
 C        6.198826307    18.616891462    -8.178985957
 C        6.265345031    18.522531181    -6.795039345
 C        6.250344917    18.459566181    -3.969174371
 C        5.427359458    17.731515050   -10.399993989
 C        5.965382536    18.709219035   -11.140787065
Si        5.858430539    18.844400514   -12.964619435
 C        7.575386499    18.820194313   -13.640118038
 C        8.589548982    18.144856124   -12.952420375
 C        9.889953048    18.120795286   -13.454620528
 C       10.203437635    18.761550451   -14.656683586
 C        9.184379089    19.432764051   -15.345438980
 C        7.884981701    19.462384495   -14.844765234
 C       11.549777470    18.762476410   -15.219820919
 C       12.612463038    18.158664353   -14.661112359
 C       13.959010454    18.159142073   -15.223592457
 C       14.275193551    18.802589589   -16.423243134
 C       15.576424790    18.777418580   -16.924257972
 C       16.590124304    18.098150890   -16.240193120
 C       16.275353995    17.450991105   -15.038528468
 C       14.976892819    17.484650146   -14.536372091
Si       18.314411797    18.061980252   -16.899511477
 C       18.294901358    18.224646371   -18.761927915
 C       19.258972500    19.489414092   -16.149979336
 C       19.137592685    16.446699043   -16.442838016
 C        4.907455247    17.421991387   -13.711437265
 C        5.016167755    20.460234264   -13.377953343
 C       -4.859277299    12.753537239    -1.888098434
 C       -4.571959860    12.920088484     1.152911445
 C       -0.631792887    -0.857143846    -1.535353873
 C       -0.604340468    -0.900583538     1.522796848
 H        1.097009119     2.600107431    -1.009527861
 H        0.237699725     4.869461997    -0.997763180
 H       -3.343979854     3.548524646     0.990067878
 H       -2.521277739     1.260246791     1.002719327
 H       -3.148484394     5.819260779     0.485992782
 H       -0.555930046     6.728267427    -0.942365261
 H       -3.942005977     7.680933879     0.538981512
 H       -4.799125354     9.953364515     0.548929119
 H       -1.169857388    11.291870812    -1.447513023
 H       -0.358166225     8.996080309    -1.449635983
 H       -1.535711888    13.579588591     0.255031790
 H       -2.735653702    14.688087929    -2.405628494
 H       -1.553011908    16.359665597    -3.480172399
 H        0.342557461    17.899255014    -3.666818650
 H        2.017255138    16.230502295    -0.041772455
 H        0.065098220    14.788951893     0.185851432
 H        4.320774831    18.660114760    -1.262314373
 H        4.000144416    16.911105408    -1.051166632
 H        3.154702274    18.127134847    -0.039007152
 H        6.231120179    18.241697435    -2.888682522
 H        5.710672287    19.404347879    -4.147030469
 H        7.312577452    18.602148519    -4.245268400
 H        4.544745654    15.599519781    -6.412572724
 H        4.401517862    15.815906066    -8.845512944
 H        6.681837003    19.461881085    -8.673381240
 H        6.795043029    19.293021828    -6.244765040
 H        4.858655775    16.899987503   -10.836830278
 H        6.531534230    19.531122180   -10.673086483
 H        8.402538045    17.624441432   -12.006818771
 H       10.663125022    17.593197171   -12.898621353
 H        9.407604975    19.938195013   -16.283057082
 H        7.132078712    20.003476434   -15.423923048
 H       11.650433665    19.305824352   -16.163986382
 H       12.511484757    17.614435185   -13.717274770
 H       13.503555707    19.332866932   -16.978574757
 H       15.762362883    19.301648868   -17.865761962
 H       17.025523944    16.903663353   -14.461045375
 H       14.752621705    16.977051430   -13.599877761
 H        2.046551507    18.998359064    -3.848794593
 H        3.733086239    19.095606025    -3.318751651
 H        2.448567064    16.406146926    -4.154947372
 H        3.108746144    17.514505952    -5.351741689
 H        4.829405053    16.570399404    -2.961796994
 H        4.629989883    15.553138721    -4.395383787
 H        2.268125369    -1.028360361     0.061403196
 H        2.269574948     0.563024412     0.862686174
 H        2.279458456     0.457941680    -0.917148791
 H       19.314501114    18.147840771   -19.179764468
 H       17.878913927    19.195047575   -19.084521654
 H       17.685221779    17.428500708   -19.226245776
 H       18.791697954    20.457984370   -16.403676937
 H       19.288345876    19.417676622   -15.047847575
 H       20.301883641    19.516609248   -16.511395009
 H       18.548313569    15.582819004   -16.800292451
 H       20.143800992    16.370611638   -16.892019277
 H       19.255041118    16.340590288   -15.350287200
 H        5.381039221    16.451884579   -13.473856937
 H        3.868595822    17.390750558   -13.337892858
 H        4.863762779    17.503381771   -14.812512242
 H        5.608413526    21.324604308   -13.027117072
 H        4.867716052    20.575863457   -14.465600878
 H        4.022227967    20.523874713   -12.898712610
 H       -4.355951101    12.547582261    -2.850380925
 H       -5.713426007    12.057088047    -1.810001777
 H       -5.268011296    13.778602532    -1.934220949
 H       -3.924835535    12.719933252     2.026075411
 H       -4.876724745    13.981388916     1.203164827
 H       -5.482960719    12.307112425     1.265735787
 H       -0.286467184    -0.346333098    -2.452274299
 H       -0.283698700    -1.903820045    -1.584490766
 H       -1.736245385    -0.870128506    -1.563154232
 H       -0.309930460    -0.367839860     2.445246770
 H       -1.703832619    -0.999423225     1.531454186
 H       -0.180987540    -1.919269446     1.578688915

