139   

Si        0.000000000     0.000000000     0.000000000
 C        1.869216778     0.000000000     0.000000000
 C       -0.649510442     1.727992670     0.000000000
 C        0.178712491     2.823959535    -0.261098608
 C       -0.335749177     4.120683987    -0.255402709
 C       -1.691656648     4.349037900    -0.008016963
 C       -2.521849741     3.249027433     0.247906899
 C       -2.008575433     1.954875441     0.256008840
 C       -2.277224967     5.684754708     0.008683881
 C       -1.596584335     6.823066454    -0.206789789
 C       -2.190725886     8.155718940    -0.188196287
 C       -1.369130151     9.264080484    -0.428934693
 C       -1.893557471    10.554183724    -0.420815843
 C       -3.253892500    10.767190838    -0.166502763
 C       -4.077254027     9.661424058     0.069817252
 C       -3.551120702     8.370419324     0.052110925
Si       -3.956071001    12.474125328    -0.154110479
 C       -4.718787222    12.744533323    -1.799501590
 C       -6.012118292    13.021711616    -2.009755991
 C       -6.604582131    13.234921541    -3.332846824
 C       -7.976324095    13.519200086    -3.417799050
 C       -8.588741553    13.729547694    -4.642581935
 C       -7.835465565    13.662933455    -5.830930821
 C       -6.468067887    13.362850763    -5.751929978
 C       -5.869949294    13.135378580    -4.516512473
 N       -8.518899646    13.887580676    -7.056170244
 C       -9.182386816    15.203061866    -7.160786903
 C       -7.805178643    13.480449122    -8.276016564
 C       -8.281829086    16.426621990    -6.910897948
 C       -7.608839078    16.929007233    -8.200527658
 N       -6.522931619    17.901142754    -7.964708525
 C       -5.441866637    17.464609715    -7.172641353
 C       -5.066460671    16.104891627    -7.186638394
 C       -4.007368600    15.659521811    -6.414907188
 C       -3.226971876    16.555459912    -5.669923749
 C       -3.572568218    17.908266857    -5.687259919
 C       -4.661250690    18.363773920    -6.421858141
 C       -7.027763240    19.259147874    -7.697670618
 C       -2.124171620    16.013103659    -4.877666611
 C       -1.292241848    16.736145790    -4.116916051
Si        0.085577643    16.032519456    -3.130831252
 C        0.143145473    14.199935317    -3.349374782
 C        1.318163694    13.511106628    -3.663605634
 C        1.304680051    12.124986017    -3.817431499
 C        0.120217974    11.396030565    -3.657164723
 C       -1.052616325    12.087369804    -3.337411491
 C       -1.041846856    13.470346737    -3.182001914
 C        0.143443695     9.947013875    -3.825615104
 C       -0.933319587     9.153327482    -3.693389489
 C       -0.926887525     7.704315222    -3.858378966
 C        0.230351527     6.989218253    -4.177602140
 C        0.192222200     5.603712096    -4.326236625
 C       -1.006317880     4.902204662    -4.156208347
 C       -2.166853284     5.616318816    -3.833592678
 C       -2.125747059     7.000631122    -3.685200897
Si       -1.047289476     3.067462177    -4.355016411
 C        0.594450122     2.335414867    -3.842140871
 C       -2.412326159     2.332637541    -3.317303184
 C       -1.361754395     2.687497805    -6.159395946
 C        1.681178097    16.819591303    -3.698980565
 C       -0.203469533    16.412281511    -1.324572542
 C       -5.208162341    12.633081424     1.222861165
 C       -2.609445464    13.741430925     0.103833952
 C       -0.630513050    -0.875156552    -1.526130889
 C       -0.606727554    -0.880809797     1.533350127
 H        1.247074211     2.708098669    -0.463396573
 H        0.329950633     4.957941461    -0.460664181
 H       -3.580206366     3.406012494     0.446868536
 H       -2.703289244     1.137918207     0.468627192
 H       -3.350893245     5.709516080     0.216327807
 H       -0.523937829     6.801430115    -0.422671330
 H       -0.308624147     9.118859330    -0.631102393
 H       -1.200342960    11.378570811    -0.618940439
 H       -5.147308919     9.765648827     0.268013860
 H       -4.212923975     7.525761986     0.232935482
 H       -4.013108852    12.660165812    -2.642133996
 H       -6.739925707    13.114430319    -1.193467525
 H       -8.572765334    13.578286618    -2.507594518
 H       -9.655338008    13.934591717    -4.691159553
 H       -5.861594404    13.302755498    -6.651154284
 H       -4.806052078    12.895193541    -4.479900050
 H       -8.497566709    13.538095426    -9.133360066
 H       -7.502500693    12.421541530    -8.178300410
 H       -6.910478885    14.078751165    -8.509181378
 H       -7.876424353    19.483772689    -8.364670546
 H       -6.235852039    19.992893311    -7.934967507
 H       -7.354637410    19.408966292    -6.655977803
 H       -5.618080089    15.391100215    -7.790719992
 H       -3.763249803    14.595718446    -6.407947077
 H       -2.984827757    18.625483758    -5.113497098
 H       -4.900469054    19.421714880    -6.399709793
 H       -2.028482840    14.921247811    -4.986729392
 H       -1.393724622    17.828156774    -4.035722179
 H        2.271316961    14.026669397    -3.803952500
 H        2.228498776    11.607265652    -4.066383039
 H       -1.987367601    11.540410454    -3.213375701
 H       -1.991904502    13.958401449    -2.932372789
 H        1.120261188     9.527922949    -4.077902139
 H       -1.910988834     9.576703096    -3.435164845
 H        1.174646547     7.512145519    -4.313961970
 H        1.129301831     5.099040606    -4.575108576
 H       -3.128922666     5.120001877    -3.679156829
 H       -3.036218075     7.538914454    -3.424288514
 H       -9.668567332    15.271640881    -8.158229423
 H      -10.015716476    15.204445649    -6.418118182
 H       -8.873933404    17.241363965    -6.456366687
 H       -7.510990475    16.176956599    -6.150876927
 H       -7.186082263    16.079585186    -8.783724959
 H       -8.362505269    17.398939947    -8.870700655
 H        2.267092919    -1.028846417     0.058089195
 H        2.271017068     0.558501561     0.864545236
 H        2.278300100     0.459770840    -0.916868435
 H        0.574201076     1.232866587    -3.893268756
 H        0.840045211     2.617064810    -2.801231625
 H        1.418834971     2.682286728    -4.487961670
 H       -2.305803418     2.639481788    -2.257157186
 H       -3.410643068     2.654233067    -3.658492197
 H       -2.388561740     1.229239553    -3.342353228
 H       -0.573601677     3.114476705    -6.804317502
 H       -1.391036320     1.599288859    -6.341135952
 H       -2.325955035     3.109208198    -6.495127629
 H        1.881976663    16.592446135    -4.762150264
 H        1.644914494    17.919069386    -3.599366274
 H        2.543221518    16.461874207    -3.109392822
 H       -1.166301922    15.996742564    -0.973841413
 H        0.594416697    15.983069547    -0.692802512
 H       -0.225430322    17.500766295    -1.141268900
 H       -6.056288089    11.938908506     1.090707091
 H       -4.750074683    12.410211713     2.203593276
 H       -5.620197679    13.656603405     1.275241015
 H       -1.796919038    13.640687507    -0.639715390
 H       -3.010390203    14.768226983     0.023545079
 H       -2.153389916    13.637555140     1.104751599
 H       -0.274046690    -0.381135324    -2.448340407
 H       -0.290605355    -1.925001199    -1.556846676
 H       -1.734412480    -0.879158088    -1.560861667
 H       -0.280212937    -0.356421616     2.449898509
 H       -1.708679463    -0.940474959     1.562128502
 H       -0.216855374    -1.912601143     1.584201936

