139   

Si        0.000000000     0.000000000     0.000000000
 C        1.868827894     0.000000000     0.000000000
 C       -0.596088309     1.746791330     0.000000000
 C       -1.368481058     2.259955224     1.045783312
 C       -1.806341516     3.584230706     1.021191058
 C       -1.476774257     4.425522558    -0.044283678
 C       -0.701386135     3.909855440    -1.091795657
 C       -0.267805584     2.587372259    -1.072699865
 C       -1.911763642     5.816075952    -0.112923040
 C       -2.660897242     6.430000233     0.819134407
 C       -3.093646829     7.821348071     0.746157302
 C       -3.873513365     8.338385363     1.788444559
 C       -4.309720778     9.660764976     1.762114778
 C       -3.988440393    10.487933313     0.680184023
 C       -3.214824703     9.973094019    -0.365494444
 C       -2.769846279     8.652836269    -0.329783974
Si       -4.556050945    12.238949450     0.627405965
 C       -4.881297823    12.689563456    -1.121289034
 C       -4.251252185    13.676525508    -1.770751833
 C       -4.498898926    14.049018458    -3.166021319
 C       -3.757185497    15.109156155    -3.709737718
 C       -3.944835056    15.509389862    -5.023066850
 C       -4.881711183    14.842664285    -5.831171958
 C       -5.625178436    13.783977130    -5.297285303
 C       -5.434215771    13.397516999    -3.973473921
 N       -5.008962323    15.323572808    -7.173715370
 C       -3.895002368    14.883342872    -8.041672352
 C       -6.333005409    15.102612466    -7.781712888
 C       -3.931001314    13.387436482    -8.405501700
 C       -2.541142143    12.726110361    -8.396263584
 N       -2.077579280    12.239868136    -7.085709919
 C       -2.866666882    11.295326565    -6.409979662
 C       -3.858483154    10.554403564    -7.086258488
 C       -4.628633403     9.625654187    -6.403240038
 C       -4.376792928     9.320077111    -5.060501906
 C       -3.365727073    10.026107191    -4.399896187
 C       -2.628137016    11.003928786    -5.050456226
 C       -1.439312722    13.275097415    -6.255301101
 C       -5.222805959     8.331438850    -4.391418874
 C       -5.076643582     7.960167186    -3.113670157
Si       -6.111386903     6.729041920    -2.238933439
 C       -6.868048185     7.653866676    -0.833354894
 C       -7.409553377     8.925629447    -1.063033869
 C       -7.985782081     9.643040017    -0.019203857
 C       -8.024258401     9.112831551     1.277642384
 C       -7.477610521     7.847186946     1.503515153
 C       -6.903627727     7.123153373     0.458447545
 C       -8.639018596     9.902773756     2.339139579
 C       -8.745468288     9.511268628     3.620148938
 C       -9.360845739    10.303525069     4.679552787
 C       -9.907705230    11.570292686     4.452277749
 C      -10.486369229    12.293566151     5.493581427
 C      -10.530376130    11.765229188     6.789665795
 C       -9.983402619    10.498114025     7.019681078
 C       -9.406033674     9.777176080     5.976445608
Si      -11.303657016    12.747858455     8.147588274
 C      -11.233721943    11.816647642     9.766719847
 C      -10.376654322    14.361396791     8.322827049
 C      -13.088664855    13.079523776     7.703774443
 C       -7.484868921     6.078045764    -3.326691910
 C       -5.057655100     5.306044984    -1.664743078
 C       -6.137268484    12.451024145     1.594858525
 C       -3.216044313    13.307974519     1.371054006
 C       -0.640475738    -0.851235659    -1.535877531
 C       -0.616324882    -0.911670952     1.511073797
 H       -1.654990556     1.651222457     1.907565309
 H       -2.409359686     3.958088515     1.846762169
 H       -0.435738622     4.548397626    -1.932881966
 H        0.331588651     2.240033212    -1.919114303
 H       -1.578823861     6.355918649    -1.005366692
 H       -2.992113145     5.892937409     1.712351905
 H       -4.144831575     7.703654293     2.629351077
 H       -4.918399955    10.010076083     2.601319673
 H       -2.939546490    10.580196602    -1.234409986
 H       -2.165049858     8.271934630    -1.151346659
 H       -5.648183743    12.072266413    -1.616242476
 H       -3.481384714    14.299830530    -1.295533603
 H       -3.029050793    15.633076775    -3.090823262
 H       -3.385344668    16.347690496    -5.434160732
 H       -6.346323804    13.250489892    -5.910483840
 H       -6.014487552    12.563366568    -3.574753384
 H       -6.389868917    15.688756472    -8.715238587
 H       -7.111601414    15.491305951    -7.101848160
 H       -6.565462698    14.053051150    -8.016657860
 H       -0.931381468    14.020891370    -6.886482805
 H       -0.660851924    12.803876211    -5.627302823
 H       -2.153976009    13.801995577    -5.597056603
 H       -4.040058252    10.707169621    -8.144968803
 H       -5.423509730     9.103792187    -6.936595429
 H       -3.155772845     9.816213993    -3.349045587
 H       -1.866779284    11.543999788    -4.495878390
 H       -5.996365017     7.910924042    -5.046481430
 H       -4.291331228     8.400191990    -2.475092661
 H       -7.390933457     9.393603930    -2.052855101
 H       -8.409610315    10.626027671    -0.216648338
 H       -7.494301155     7.414191570     2.501432011
 H       -6.486553756     6.139912215     0.692890372
 H       -9.033581582    10.872089327     2.019448294
 H       -8.357245860     8.540309996     3.940713174
 H       -9.886265872    12.003015871     3.453584169
 H      -10.898488269    13.277999829     5.254028336
 H       -9.989577522    10.035511573     8.010333632
 H       -8.987016741     8.792592142     6.175764617
 H       -3.928504234    15.507113630    -8.962375597
 H       -2.942489953    15.142154505    -7.528668466
 H       -4.597087727    12.852127715    -7.695369922
 H       -4.396532122    13.253279904    -9.398261321
 H       -2.538916161    11.849842522    -9.089675860
 H       -1.776451167    13.423918146    -8.804587749
 H        2.270749606    -1.028418946    -0.006016968
 H        2.268669135     0.509414699     0.895675099
 H        2.274406032     0.522582792    -0.884410644
 H      -11.696571864    12.401119101    10.582086335
 H      -10.192409120    11.601292401    10.065644848
 H      -11.772292797    10.854301673     9.704453316
 H       -9.314987380    14.187075036     8.575525549
 H      -10.400489893    14.946415558     7.386466518
 H      -10.810124430    14.989926636     9.120515205
 H      -13.652853418    12.136373619     7.586492402
 H      -13.593710695    13.675143105     8.484384853
 H      -13.173927033    13.634211264     6.752608072
 H       -8.134780342     6.893708873    -3.689558895
 H       -7.082510231     5.548766777    -4.208264220
 H       -8.125864720     5.366911594    -2.775517576
 H       -4.294195880     5.635310351    -0.934265297
 H       -5.661732300     4.518677962    -1.181253606
 H       -4.518877964     4.838149047    -2.509094870
 H       -6.896195181    11.708055484     1.285170057
 H       -5.969502058    12.316768665     2.678706469
 H       -6.569982264    13.456286291     1.447924924
 H       -2.266888844    13.214252443     0.814046062
 H       -3.503357778    14.373917109     1.373344226
 H       -3.011265971    13.017427034     2.417437854
 H       -0.287905052    -0.350689839    -2.454958282
 H       -0.308837170    -1.903489557    -1.580501793
 H       -1.745376416    -0.848387688    -1.562408644
 H       -0.251383118    -0.444712564     2.443176297
 H       -1.720021190    -0.927723040     1.551817105
 H       -0.271058119    -1.961128506     1.511087875

