139   

Si        0.000000000     0.000000000     0.000000000
 C        1.869736432     0.000000000     0.000000000
 C       -0.603445858     1.744996035     0.000000000
 C       -0.005949902     2.689378829    -0.843175724
 C       -0.449447511     4.010803671    -0.855467320
 C       -1.503645086     4.418620004    -0.032587397
 C       -2.103021698     3.471280497     0.807036468
 C       -1.659939524     2.150466428     0.823548253
 C       -2.000587157     5.790627255    -0.012485405
 C       -1.512098871     6.791411359    -0.764700009
 C       -2.007953730     8.163781449    -0.745690904
 C       -1.403480091     9.109457513    -1.585248638
 C       -1.841785114    10.430827446    -1.602202557
 C       -2.901506340    10.836853965    -0.781015286
 C       -3.506519266     9.895530782     0.057421580
 C       -3.061656496     8.573753297     0.075432261
Si       -3.476542824    12.590032463    -0.809317843
 C       -5.066832276    12.706769181     0.091876816
 C       -5.287229471    13.460132106     1.177548303
 C       -6.569121781    13.536015649     1.880238973
 C       -6.675471115    14.363222826     3.008433646
 C       -7.864848729    14.470887623     3.708969085
 C       -8.990250794    13.707883484     3.327262610
 C       -8.884816418    12.877107417     2.196342819
 C       -7.696909452    12.815768021     1.478521964
 N      -10.187001410    13.834769319     4.054548930
 C      -10.062096133    13.973989263     5.516389468
 C      -11.312754222    12.977942953     3.650412582
 C       -9.282213652    12.823563780     6.185929058
 C       -9.673362752    12.651519746     7.665482242
 N      -10.671364738    11.585410759     7.919135920
 C      -11.867917460    11.750555149     7.166110569
 C      -12.667625703    12.871412582     7.464396195
 C      -13.844885672    13.090041816     6.768051314
 C      -14.276732128    12.190633513     5.780856990
 C      -13.491391860    11.068661449     5.507299331
 C      -12.303901414    10.839514807     6.194512661
 C      -10.075232348    10.238104857     7.872792373
 C      -15.529182333    12.466461808     5.072333932
 C      -16.031554771    11.676383731     4.115308950
Si      -17.589378204    11.966415421     3.194405954
 C      -17.137320380    12.097785216     1.409933306
 C      -15.842596681    12.482855246     1.044553934
 C      -15.487794186    12.586066954    -0.299666569
 C      -16.418781028    12.314811841    -1.306218966
 C      -17.715873302    11.934239906    -0.936756874
 C      -18.073314391    11.827512302     0.405288531
 C      -16.092201672    12.409796142    -2.725336513
 C      -14.889825151    12.762487885    -3.211039898
 C      -14.562633622    12.857651965    -4.630071492
 C      -15.492665444    12.583975427    -5.637628201
 C      -15.137931300    12.687272881    -6.981538452
 C      -13.841804131    13.069320325    -7.348778648
 C      -12.909374828    13.343918807    -6.342223606
 C      -13.266514884    13.238408471    -4.999533193
Si      -13.402395195    13.197148926    -9.137285375
 C      -14.575826659    14.396448696    -9.960782659
 C      -11.649017949    13.808386369    -9.349673278
 C      -13.566147899    11.505070910    -9.913674768
 C      -18.719768538    10.508860533     3.481756944
 C      -18.430176279    13.545720926     3.722821109
 C       -2.161866944    13.660635005    -0.026308553
 C       -3.771226133    13.126831235    -2.574788474
 C       -0.638569494    -0.845872247    -1.538712155
 C       -0.611818858    -0.908221081     1.514673317
 H        0.820568405     2.430754666    -1.511089887
 H        0.034844701     4.726564291    -1.517536415
 H       -2.925567756     3.766977878     1.455736625
 H       -2.165942666     1.456892340     1.500559774
 H       -2.829717504     5.966880994     0.679084489
 H       -0.683150605     6.614678507    -1.456443493
 H       -0.581505513     8.810027661    -2.232625999
 H       -1.331607074    11.124228606    -2.276296712
 H       -4.336104338    10.158799321     0.722116494
 H       -3.547693980     7.859793317     0.737980567
 H       -5.869381625    12.091640280    -0.345762545
 H       -4.507844035    14.085969039     1.632778243
 H       -5.811464029    14.942985366     3.334718302
 H       -7.928428692    15.147906423     4.556091918
 H       -9.727099875    12.276492628     1.867581843
 H       -7.646497340    12.176328044     0.595692936
 H      -12.208460415    13.233600691     4.247730016
 H      -11.119537835    11.901036264     3.781253400
 H      -11.566402657    13.178407899     2.594071019
 H       -9.295656235    10.173127622     8.652560132
 H       -9.621310646     9.971997174     6.905679351
 H      -10.844261419     9.487201822     8.125334640
 H      -12.358554066    13.556372799     8.251683891
 H      -14.450111528    13.966243687     7.002245478
 H      -13.809106991    10.351299927     4.748736807
 H      -11.715439583     9.957867984     5.956862664
 H      -16.021912355    13.389913179     5.402429781
 H      -15.513285315    10.751737118     3.810028409
 H      -15.071985294    12.711271390     1.788855860
 H      -14.473248037    12.884480602    -0.559583355
 H      -18.455512756    11.719051234    -1.705697267
 H      -19.098850617    11.525460040     0.633725763
 H      -16.917090244    12.167661912    -3.401789882
 H      -14.064737250    13.005612078    -2.534591355
 H      -16.507006229    12.286384858    -5.377889590
 H      -15.908605673    12.460638777    -7.723744202
 H      -11.883532096    13.646577134    -6.569671574
 H      -12.526557056    13.456652571    -4.231296751
 H       -9.573339656    14.950433419     5.734177433
 H      -11.088725663    14.051111004     5.944642105
 H       -9.456763101    11.880546102     5.633006570
 H       -8.195686544    13.008152253     6.093866907
 H       -8.771006732    12.424683777     8.276167244
 H      -10.083382198    13.600608098     8.078109737
 H        2.270844429    -1.027623193     0.051277921
 H        2.268344971     0.556427295     0.867845933
 H        2.278385399     0.470397337    -0.911342219
 H      -14.344915524    14.512009685   -11.034371485
 H      -14.514078363    15.397757955    -9.496819331
 H      -15.624396743    14.059859798    -9.879548146
 H      -11.508530568    14.802833261    -8.889455602
 H      -10.919723069    13.118076668    -8.889585858
 H      -11.386496480    13.899969706   -10.418953595
 H      -14.592211695    11.109668541    -9.811205825
 H      -13.324031845    11.531177626   -10.990631700
 H      -12.884152600    10.778232337    -9.435959234
 H      -18.271998350     9.570338185     3.107473535
 H      -18.926354115    10.370394783     4.558836334
 H      -19.690542506    10.640889901     2.972428782
 H      -17.776373339    14.422997996     3.564269512
 H      -19.355909707    13.719728119     3.144808289
 H      -18.705613381    13.519354861     4.792187921
 H       -1.966167966    13.355936413     1.018118162
 H       -1.205375145    13.587842532    -0.573812283
 H       -2.460792614    14.723843716    -0.016773331
 H       -4.508806748    12.473951832    -3.075650507
 H       -4.160998768    14.160080602    -2.616546425
 H       -2.842064825    13.095907197    -3.169733928
 H       -0.291329357    -0.334128737    -2.454111250
 H       -0.298364669    -1.894932587    -1.592214228
 H       -1.743366120    -0.851167902    -1.564434263
 H       -0.307794626    -0.391811321     2.443013350
 H       -1.712833581    -0.992627756     1.522719542
 H       -0.202850590    -1.933540921     1.557282284

