139   

Si        0.000000000     0.000000000     0.000000000
 C        1.869390246     0.000000000     0.000000000
 C       -0.642332248     1.730938389     0.000000000
 C        0.119731421     2.780362695    -0.524003376
 C       -0.371911486     4.085458221    -0.520664901
 C       -1.638154381     4.370488115    -0.002469917
 C       -2.402557738     3.317247143     0.516769345
 C       -1.912997821     2.013640689     0.517464968
 C       -2.194242657     5.719448007     0.022378857
 C       -1.567090862     6.814765884    -0.439103887
 C       -2.124840351     8.163185548    -0.413423847
 C       -3.391968760     8.444238267     0.105825374
 C       -3.887044951     9.747719109     0.110964379
 C       -3.118919176    10.800232328    -0.397279387
 C       -1.848869813    10.523120662    -0.917902101
 C       -1.360831471     9.218782449    -0.928116610
Si       -3.766544056    12.527304616    -0.394127654
 C       -2.339275247    13.676575732    -0.384578576
 C       -2.073391783    14.591489496    -1.325798203
 C       -0.922107855    15.496130667    -1.287954467
 C       -0.748632715    16.414891540    -2.335091829
 C        0.322686524    17.291252582    -2.346370701
 C        1.244691045    17.301671083    -1.277222541
 C        1.076541556    16.380103173    -0.230964866
 C        0.018484084    15.477840143    -0.256263560
 N        2.321506212    18.213263751    -1.333140505
 C        1.958463281    19.619771687    -1.622999280
 C        3.352921519    18.076237411    -0.291731933
 C        0.641612228    20.117173661    -1.005098218
 C        0.633318383    20.054662653     0.532951679
 N       -0.727036886    20.026544280     1.104090257
 C       -1.556842130    21.123563453     0.800447899
 C       -1.003077260    22.421032985     0.747523323
 C       -1.801906977    23.513040520     0.450690205
 C       -3.181325494    23.368749534     0.242833688
 C       -3.732714905    22.087530287     0.328201464
 C       -2.943888251    20.979816117     0.610931896
 C       -1.344451407    18.690518514     1.032507003
 C       -3.980145147    24.555646175    -0.068241376
 C       -5.301803620    24.534941128    -0.285038683
Si       -6.340756491    25.991604101    -0.676562625
 C       -7.624298368    26.162050159     0.638324997
 C       -7.451071118    25.548229022     1.884642862
 C       -8.421394196    25.678470557     2.875315435
 C       -9.582407714    26.428662049     2.647783531
 C       -9.749774972    27.043327532     1.403303331
 C       -8.781854070    26.913141326     0.408303500
 C      -10.570094323    26.535719397     3.716837340
 C      -11.723153980    27.220199998     3.627741202
 C      -12.710681673    27.327137557     4.696868120
 C      -12.544278311    26.712978305     5.941431474
 C      -13.514052305    26.841565382     6.935002814
 C      -14.678607849    27.581585322     6.702600855
 C      -14.848087725    28.196658630     5.456116321
 C      -13.874458263    28.072720225     4.467916059
Si      -15.960605268    27.749704271     8.020602986
 C      -16.024019405    26.189366974     9.048556130
 C      -15.503942780    29.203399548     9.102251631
 C      -17.640599032    28.037053595     7.252279538
 C       -5.335607549    27.564057968    -0.733339283
 C       -7.155498755    25.693287079    -2.331549369
 C       -4.835248201    12.763079697    -1.906334496
 C       -4.768966376    12.844014521     1.150451498
 C       -0.630962238    -0.859568248    -1.534369058
 C       -0.603253160    -0.898956060     1.524359065
 H        1.116313099     2.619840441    -0.944594193
 H        0.243575241     4.884991111    -0.929404983
 H       -3.391581689     3.517051511     0.925232701
 H       -2.554710589     1.234150193     0.937469178
 H       -3.195624498     5.792670653     0.457140306
 H       -0.566091165     6.742053514    -0.874569407
 H       -4.005894462     7.642181146     0.511502263
 H       -4.885389057     9.905566285     0.527985969
 H       -1.205892659    11.309061509    -1.328193240
 H       -0.372559048     9.020987612    -1.339530104
 H       -1.684838533    13.556362842     0.494190262
 H       -2.707027893    14.734696744    -2.211062871
 H       -1.461502852    16.432856143    -3.160455210
 H        0.463789335    17.968952692    -3.185238204
 H        1.770171137    16.351975783     0.603429838
 H       -0.079474734    14.757106622     0.557498042
 H        4.175994150    18.783023502    -0.494471640
 H        3.786228131    17.060344430    -0.350076046
 H        2.992917049    18.248542159     0.734781687
 H       -0.595125041    17.913401192     1.265904288
 H       -1.772784364    18.450005495     0.045253968
 H       -2.135885197    18.616438723     1.799529821
 H        0.055864340    22.570267138     0.937385131
 H       -1.349088210    24.503255329     0.393647083
 H       -4.803740509    21.945921307     0.173167895
 H       -3.414391628    20.002906889     0.667215576
 H       -3.386863947    25.478818862    -0.105395370
 H       -5.869429186    23.590988111    -0.242144251
 H       -6.562637244    24.951935619     2.119073101
 H       -8.271625929    25.191302000     3.837239119
 H      -10.642945539    27.631421392     1.200915627
 H       -8.968875403    27.414779240    -0.544969156
 H      -10.307719402    26.003625074     4.636204479
 H      -11.985572314    27.752053360     2.708422315
 H      -11.650013580    26.126753481     6.145868845
 H      -13.325833810    26.339999827     7.888403121
 H      -15.737364600    28.786181717     5.216707831
 H      -14.024020752    28.559964835     3.506130737
 H        2.794429646    20.284265379    -1.313948020
 H        1.893593275    19.705203990    -2.735458115
 H        0.447257153    21.155419623    -1.338963417
 H       -0.210485681    19.529423738    -1.403943567
 H        1.169886943    19.147732193     0.892709803
 H        1.182399187    20.920495833     0.964594207
 H        2.267933985    -1.026513428     0.087551154
 H        2.269882692     0.584534683     0.848047988
 H        2.279162547     0.434253045    -0.928727001
 H      -16.834616011    26.237070753     9.797277959
 H      -15.079761368    26.019379004     9.594702094
 H      -16.207929244    25.301820401     8.416278673
 H      -14.516380876    29.058088390     9.575890859
 H      -15.452910077    30.139155644     8.516908706
 H      -16.243021625    29.353321197     9.908670593
 H      -17.898172299    27.231540838     6.541003622
 H      -18.432088256    28.064913841     8.022264361
 H      -17.681841662    28.993765391     6.702879278
 H       -4.839029229    27.758680259     0.234947734
 H       -4.552151307    27.514215068    -1.510066125
 H       -5.971957712    28.439060985    -0.956617867
 H       -7.819067482    24.810231888    -2.299639467
 H       -7.766117196    26.557248590    -2.646221297
 H       -6.401982091    25.513080019    -3.119503290
 H       -4.262911590    12.587716158    -2.835657880
 H       -5.686447818    12.058359511    -1.908839011
 H       -5.249528698    13.785799264    -1.953184245
 H       -4.187813718    12.615228430     2.062058894
 H       -5.080248882    13.902649225     1.212716357
 H       -5.684323047    12.227316378     1.175267963
 H       -0.286069084    -0.349311022    -2.451785265
 H       -0.281643499    -1.905897739    -1.582419260
 H       -1.735365649    -0.873889235    -1.562241343
 H       -0.309079297    -0.364245526     2.445773404
 H       -1.702664401    -0.998394257     1.533683223
 H       -0.179191443    -1.917210139     1.581796953

