139   

Si        0.000000000     0.000000000     0.000000000
 C        1.869426237     0.000000000     0.000000000
 C       -0.626821350     1.736701634     0.000000000
 C        0.052739802     2.734458213     0.708066091
 C       -0.416500070     4.047308351     0.711200468
 C       -1.578590493     4.392535604     0.015255664
 C       -2.260139326     3.391687199    -0.688972850
 C       -1.791639977     2.079879660    -0.696917137
 C       -2.106992803     5.752644807    -0.009852958
 C       -1.549218501     6.801689672     0.618332033
 C       -2.078245731     8.161585002     0.592752420
 C       -1.394454700     9.163942075     1.294165225
 C       -1.861213986    10.475848096     1.298734985
 C       -3.030664151    10.813999438     0.606782506
 C       -3.716084729     9.815900752    -0.093171823
 C       -3.241696309     8.504517124    -0.101444888
Si       -3.652751019    12.550197722     0.609943192
 C       -5.441329814    12.522789991     0.208987822
 C       -6.010816506    13.130290521    -0.839885679
 C       -7.446047003    13.087932822    -1.131185683
 C       -7.926090607    13.765738377    -2.263059490
 C       -9.273833625    13.756088532    -2.581638343
 C      -10.192657262    13.083527888    -1.751027029
 C       -9.717020170    12.399193699    -0.623574818
 C       -8.355972350    12.388792822    -0.335491594
 N      -11.561608546    13.110421115    -2.132351929
 C      -12.151212957    14.469243676    -2.144780273
 C      -12.430276487    12.128569240    -1.459288556
 C      -12.076830927    15.208599159    -0.796670966
 C      -10.881658671    16.182065153    -0.738872440
 N      -10.385166119    16.427199090     0.627876787
 C      -11.333073296    16.878648283     1.565806385
 C      -12.304376640    17.822139181     1.165491169
 C      -13.248012580    18.282528380     2.068127167
 C      -13.237452395    17.861939166     3.406624596
 C      -12.257287891    16.950795779     3.807401261
 C      -11.312182770    16.467201382     2.911027348
 C       -9.431188048    15.402545605     1.081991833
 C      -14.258960592    18.380864726     4.317061128
 C      -14.352619475    18.054894966     5.613155486
Si      -15.624658512    18.695564587     6.764818718
 C      -16.755123432    19.853449181     5.877842954
 C      -16.232415051    21.023646870     5.309196443
 C      -17.064097155    21.913019027     4.635119300
 C      -18.436353812    21.656597240     4.508777465
 C      -18.953692464    20.488819741     5.074844501
 C      -18.122834098    19.595646934     5.752044310
 C      -19.267129258    22.619304785     3.792940544
 C      -20.591508177    22.494238005     3.602069804
 C      -21.422205625    23.457071424     2.886176273
 C      -20.904799148    24.625447342     2.319780062
 C      -21.735569841    25.518354599     1.643907427
 C      -23.103849686    25.258090286     1.511893118
 C      -23.624472657    24.087647552     2.077771336
 C      -22.793736264    23.201051897     2.758619466
Si      -24.204127717    26.440209905     0.617019554
 C      -23.242541553    27.318956383    -0.724054083
 C      -25.630549664    25.519971220    -0.166300393
 C      -24.854732275    27.685203146     1.848973387
 C      -16.571504431    17.242838394     7.461389490
 C      -14.781662337    19.618279721     8.153825688
 C       -3.458099143    13.305469121     2.307428657
 C       -2.680559181    13.534614533    -0.642884842
 C       -0.605522448    -0.907219858    -1.518107358
 C       -0.633440612    -0.852276364     1.537462383
 H        0.965589130     2.525896038     1.272999752
 H        0.133590798     4.805831206     1.265496124
 H       -3.167114768     3.638244079    -1.238136299
 H       -2.364806020     1.343036156    -1.266302190
 H       -3.023340389     5.876277069    -0.594776080
 H       -0.632890993     6.678232995     1.203035724
 H       -0.486425087     8.917326342     1.841274005
 H       -1.284962245    11.215668156     1.861005820
 H       -4.634700848    10.024389576    -0.651767065
 H       -3.791066961     7.745576525    -0.655945308
 H       -6.043426736    11.944650945     0.929105484
 H       -5.437208379    13.713427734    -1.572291111
 H       -7.228308819    14.300015631    -2.908508562
 H       -9.628718380    14.253981065    -3.481773962
 H      -10.401178992    11.870129179     0.033492162
 H       -8.004646076    11.833839741     0.536034565
 H      -13.403143296    12.103355289    -1.981594440
 H      -12.614644038    12.336788423    -0.393761996
 H      -11.988939436    11.121028494    -1.555330315
 H       -8.710508706    15.178043321     0.273449163
 H       -9.906819095    14.453676905     1.378102630
 H       -8.844850271    15.798387919     1.930077420
 H      -12.315771064    18.190763330     0.143718808
 H      -14.003790224    18.994464645     1.733630091
 H      -12.226631888    16.607101326     4.842094625
 H      -10.571375653    15.756624122     3.263541174
 H      -14.959659738    19.074324274     3.828847110
 H      -13.642228341    17.354795798     6.078801963
 H      -15.169211459    21.276137624     5.375576927
 H      -16.641323384    22.817566490     4.201672124
 H      -20.015492603    20.264933239     4.991104934
 H      -18.585270955    18.698180865     6.171842345
 H      -18.728043336    23.487823408     3.403065492
 H      -21.130900436    21.625981965     3.992039133
 H      -19.842727373    24.848994582     2.403767745
 H      -21.272663886    26.416167544     1.224789940
 H      -24.685006302    23.831118916     2.006086832
 H      -23.218102648    22.297816735     3.193298498
 H      -11.643155335    15.053022256    -2.944503654
 H      -13.210955600    14.374334652    -2.472238432
 H      -13.016344269    15.761095742    -0.608484842
 H      -12.007235035    14.479833104     0.034032729
 H      -10.033260690    15.799249017    -1.352010240
 H      -11.158388942    17.161626632    -1.189879992
 H        2.268928789    -1.027967430    -0.060587399
 H        2.279821905     0.460419871     0.915638854
 H        2.268743004     0.562816263    -0.863357607
 H      -23.899915722    27.974678694    -1.322338809
 H      -22.773632753    26.597693512    -1.417714697
 H      -22.439184853    27.950557983    -0.306184976
 H      -25.269255826    24.716830048    -0.833949959
 H      -26.284427795    25.054427802     0.591657827
 H      -26.258424373    26.197563554    -0.771800780
 H      -24.031238376    28.244505057     2.328614549
 H      -25.520871307    28.420876728     1.365087007
 H      -25.429362440    27.192125663     2.653615025
 H      -17.051479995    16.654154634     6.658523244
 H      -15.904738886    16.558161742     8.015442167
 H      -17.361724359    17.571974735     8.158876494
 H      -14.173569623    20.457279939     7.769860587
 H      -15.520562835    20.040230494     8.858658447
 H      -14.109934562    18.957154518     8.728966197
 H       -3.957265280    12.693510385     3.080409401
 H       -2.395368786    13.398263761     2.591936673
 H       -3.902107264    14.316925033     2.346957909
 H       -2.783978121    13.108346122    -1.657653505
 H       -3.018691675    14.585352894    -0.682609010
 H       -1.602773251    13.540461826    -0.399074098
 H       -0.312068445    -0.379478683    -2.443684926
 H       -0.181927758    -1.926130443    -1.569791002
 H       -1.705021457    -1.007405047    -1.524268832
 H       -0.288045004    -0.339517607     2.453198838
 H       -1.737999134    -0.863992705     1.564761791
 H       -0.286855501    -1.899311396     1.589461076

