139   

Si        0.000000000     0.000000000     0.000000000
 C        1.871967179     0.000000000     0.000000000
 C       -0.567966781     1.756883378     0.000000000
 C       -0.427959589     2.519980111     1.165537003
 C       -0.846859255     3.848264690     1.197212592
 C       -1.421232582     4.446021810     0.070862202
 C       -1.566610550     3.679526825    -1.091573897
 C       -1.148494545     2.350024389    -1.126599038
 C       -1.870606773     5.835577883     0.071035247
 C       -1.775915759     6.653576499     1.133016496
 C       -2.212796424     8.044037942     1.170986174
 C       -2.041534570     8.761610299     2.363296118
 C       -2.439251381    10.092429232     2.460011548
 C       -2.987240532    10.750042870     1.352300638
 C       -3.143459630    10.041482419     0.155902850
 C       -2.760395999     8.702958726     0.066523026
Si       -3.515168352    12.515198276     1.479236063
 C       -5.022752351    12.720357238     0.457613649
 C       -5.146413039    13.549391594    -0.587370441
 C       -6.367272545    13.689794775    -1.384234661
 C       -6.376955412    14.592565008    -2.457597591
 C       -7.507288542    14.760999876    -3.240868419
 C       -8.653697662    13.971841125    -3.013602590
 C       -8.644256859    13.061219630    -1.943903749
 C       -7.523373876    12.946471990    -1.130508797
 N       -9.787678994    14.174017426    -3.834732504
 C       -9.540149722    14.180362338    -5.290829737
 C      -10.996084867    13.411664151    -3.475323755
 C       -9.063107454    12.832282588    -5.864497748
 C       -7.554934848    12.847620313    -6.185366895
 N       -6.934023216    11.506445527    -6.242865665
 C       -6.866854519    10.884823655    -4.958092293
 C       -5.954040007    11.435337318    -4.040596296
 C       -5.831332947    10.887829120    -2.774673204
 C       -6.572174574     9.756031741    -2.401293658
 C       -7.459282214     9.202785343    -3.326157482
 C       -7.611171274     9.756890998    -4.594444458
 C       -7.487613778    10.667202784    -7.319486491
 C       -6.399910791     9.221877789    -1.047699814
 C       -7.049592145     8.150447884    -0.577727424
Si       -6.874304985     7.439473814     1.102122879
 C       -6.285320197     5.702452627     0.906326965
 C       -5.909067123     5.214531870    -0.350773516
 C       -5.465057842     3.902488617    -0.493676362
 C       -5.365950492     3.055845115     0.617292252
 C       -5.727804650     3.550712441     1.873608371
 C       -6.178876432     4.861761425     2.019275780
 C       -4.895474093     1.690213790     0.415057462
 C       -4.759822972     0.775266057     1.389604202
 C       -4.288466561    -0.588751338     1.178730848
 C       -3.929564786    -1.071864536    -0.082626644
 C       -3.483278570    -2.383232982    -0.242849483
 C       -3.391482289    -3.243449556     0.856134111
 C       -3.751526732    -2.762276307     2.121360055
 C       -4.192562345    -1.450804033     2.279464007
Si       -2.801081903    -4.978800888     0.645164302
 C       -3.133350864    -5.565593050    -1.098464434
 C       -0.961168252    -5.003221290     0.976782133
 C       -3.682992577    -6.105947083     1.846853952
 C       -5.719748211     8.408348840     2.190161621
 C       -8.576737997     7.419548253     1.880488973
 C       -3.954645670    12.947185065     3.242516997
 C       -2.118611144    13.598457748     0.879984461
 C       -0.605689578    -0.894927153    -1.525239701
 C       -0.611981087    -0.863034963     1.535493519
 H        0.007026613     2.108454690     2.080704859
 H       -0.727898200     4.418229464     2.117062274
 H       -2.015028740     4.123119678    -1.978278529
 H       -1.290991478     1.799844263    -2.059868152
 H       -2.310462903     6.181734895    -0.868159005
 H       -1.344102876     6.290736785     2.071412436
 H       -1.602961867     8.271031362     3.230137552
 H       -2.297041644    10.592346048     3.421513148
 H       -3.555126106    10.508832987    -0.745156610
 H       -2.900029629     8.170028389    -0.873312418
 H       -5.864927816    12.088003783     0.784878340
 H       -4.328600711    14.195575960    -0.932607964
 H       -5.488754324    15.187889040    -2.670276195
 H       -7.510049221    15.505274707    -4.032702175
 H       -9.502486670    12.427112738    -1.743015113
 H       -7.546686523    12.237924307    -0.299847988
 H      -11.836960535    13.743783191    -4.107775328
 H      -11.271447078    13.640566343    -2.429798402
 H      -10.889144286    12.320488400    -3.584802698
 H       -7.314219290    11.175914427    -8.283691020
 H       -8.562495288    10.451384013    -7.228749407
 H       -6.936534887     9.710681603    -7.351246179
 H       -5.354921907    12.297484339    -4.328869031
 H       -5.137930703    11.342966736    -2.063466933
 H       -8.050061770     8.325982390    -3.060096201
 H       -8.316673883     9.312206418    -5.288992076
 H       -5.678151196     9.788902102    -0.442962020
 H       -7.773152951     7.605103608    -1.205589519
 H       -5.948036738     5.835755607    -1.251234261
 H       -5.181866717     3.537138167    -1.478825421
 H       -5.652526259     2.913784050     2.752681401
 H       -6.442556806     5.195588430     3.026230360
 H       -4.639626508     1.444258769    -0.620156587
 H       -5.004558560     1.022498079     2.426093368
 H       -3.999565394    -0.422953096    -0.954407892
 H       -3.219416769    -2.705114572    -1.254189403
 H       -3.702379191    -3.389618812     3.015299366
 H       -4.468154818    -1.094510865     3.270155247
 H      -10.487189749    14.492046818    -5.788160187
 H       -8.810305222    14.988846966    -5.518835572
 H       -9.276790592    12.017835613    -5.143119834
 H       -9.639224158    12.580152121    -6.771277014
 H       -7.369780169    13.348304167    -7.160320564
 H       -7.006954076    13.441160032    -5.415738186
 H        2.272487816    -1.028276197     0.009226505
 H        2.273202807     0.524499518     0.885043687
 H        2.273433063     0.508359667    -0.894379835
 H       -2.851878948    -6.626521201    -1.222202709
 H       -2.562254032    -4.984514242    -1.843373587
 H       -4.204766990    -5.475858245    -1.353635636
 H       -0.421459911    -4.327509423     0.288494692
 H       -0.733874085    -4.674603679     2.006633715
 H       -0.541997344    -6.016392884     0.848831665
 H       -4.779281452    -6.045169747     1.720552835
 H       -3.390030106    -7.160026487     1.695449678
 H       -3.454549841    -5.847381853     2.895556265
 H       -4.698435933     8.453526721     1.761595762
 H       -6.065789522     9.448315980     2.327352867
 H       -5.627208869     7.951224063     3.190999059
 H       -9.285350632     6.816955260     1.285580879
 H       -8.548360792     6.989031740     2.896330093
 H       -8.991232137     8.439996221     1.960178789
 H       -4.705731001    12.250840971     3.656439550
 H       -3.070064218    12.916576917     3.902142277
 H       -4.378482038    13.966076573     3.307441439
 H       -1.847634045    13.368738851    -0.166577085
 H       -2.385834810    14.668701955     0.931920918
 H       -1.209789599    13.453809481     1.491683638
 H       -0.146808151    -0.489606421    -2.443387611
 H       -0.359068905    -1.970526317    -1.475547116
 H       -1.702245998    -0.811213753    -1.628441242
 H       -0.250471996    -0.374348227     2.455858298
 H       -1.719724041    -0.865451027     1.576304167
 H       -0.284282520    -1.917250947     1.563061143

