139   

Si        0.000000000     0.000000000     0.000000000
 C        1.869846815     0.000000000     0.000000000
 C       -0.639072849     1.731316488     0.000000000
 C        0.189137816     2.813132661    -0.314355358
 C       -0.311604407     4.115032424    -0.309188052
 C       -1.648531321     4.365019605     0.010661396
 C       -2.478446517     3.279301536     0.320705686
 C       -1.982967125     1.978391351     0.310727002
 C       -2.216611433     5.708811685     0.029158909
 C       -1.531318558     6.829526054    -0.253274127
 C       -2.098317576     8.173800950    -0.235100241
 C       -1.267958587     9.257372866    -0.551288882
 C       -1.762638630    10.559108757    -0.547663900
 C       -3.095158335    10.808187505    -0.199676121
 C       -3.925587660     9.729114436     0.122094660
 C       -3.432524627     8.425311413     0.096309148
Si       -3.761928004    12.526408593    -0.191014377
 C       -5.217409538    12.553780598     0.924513825
 C       -6.467452601    12.880519778     0.573927260
 C       -7.603708723    12.888723793     1.501605503
 C       -8.867237727    13.250351123     1.011881905
 C       -9.973528445    13.273501772     1.849656078
 C       -9.822499755    12.976991549     3.211441350
 C       -8.562444378    12.642073687     3.715695028
 C       -7.463069794    12.604476455     2.863209808
 N      -11.031566138    13.028497718     3.995181304
 C      -11.507131446    11.689992926     4.401583878
 C      -10.932564218    13.992072887     5.107100376
 C      -10.907626738    11.123088449     5.702459636
 C      -11.148359437     9.605718259     5.821712811
 N      -10.037526484     8.755426434     5.343631836
 C       -9.771660724     8.897004501     3.949314339
 C      -10.748289320     8.413633219     3.059413954
 C      -10.552775290     8.519840875     1.691187737
 C       -9.394390031     9.117031373     1.172753427
 C       -8.421519083     9.576620989     2.063338597
 C       -8.590540193     9.448388190     3.437635157
 C       -8.852041423     8.823811473     6.216427644
 C       -9.230613012     9.207296107    -0.280330979
 C       -8.163703864     9.757812072    -0.872528777
Si       -7.893033935     9.904468221    -2.677291296
 C       -6.334080937     8.965692188    -2.981447608
 C       -6.310893331     7.585427047    -2.748747182
 C       -5.147708217     6.851074304    -2.969801834
 C       -3.979072660     7.480024392    -3.410612085
 C       -4.002912794     8.861997075    -3.634411444
 C       -5.167064675     9.597549749    -3.422624440
 C       -2.740108240     6.749630987    -3.654357739
 C       -2.589364259     5.426126678    -3.477787060
 C       -1.351442644     4.693995380    -3.720934585
 C       -0.183875020     5.318442690    -4.169908736
 C        0.977900925     4.580964927    -4.389684757
 C        0.989633218     3.195237329    -4.190781141
 C       -0.180690250     2.566969253    -3.751608789
 C       -1.336236829     3.308834060    -3.516931753
Si        2.540471939     2.242002289    -4.488711955
 C        3.269614212     2.738548971    -6.136246596
 C        3.735087280     2.639966674    -3.105379645
 C        2.197500522     0.404150091    -4.498593938
 C       -9.279837534     9.145266354    -3.669921065
 C       -7.739286176    11.710761417    -3.124255236
 C       -2.493458727    13.702742147     0.517756527
 C       -4.180240613    13.040814499    -1.934235199
 C       -0.627676220    -0.869215868    -1.531969208
 C       -0.609801733    -0.885913525     1.529088003
 H        1.242516015     2.682314073    -0.577054237
 H        0.352364132     4.938430658    -0.567798092
 H       -3.523492192     3.452699972     0.570573947
 H       -2.678401223     1.172159547     0.557719826
 H       -3.276784056     5.755637805     0.295349038
 H       -0.473168370     6.781644724    -0.526529232
 H       -0.226380754     9.081062628    -0.812004724
 H       -1.072389674    11.362740179    -0.815320331
 H       -4.978654896     9.863726146     0.392109484
 H       -4.102764790     7.600271562     0.334181537
 H       -4.974156745    12.265626329     1.961210564
 H       -6.742295823    13.171632325    -0.448233697
 H       -8.991297801    13.491144501    -0.043313231
 H      -10.962119145    13.526100495     1.466649564
 H       -8.436342470    12.419959087     4.771294367
 H       -6.485573185    12.345350715     3.270047456
 H      -11.907716051    14.048072321     5.618479338
 H      -10.720359180    14.990617312     4.684724574
 H      -10.155536857    13.762207703     5.850496991
 H       -9.141909340     8.491916219     7.228477868
 H       -8.394865588     9.821751117     6.296408507
 H       -8.089806290     8.114180376     5.848198466
 H      -11.648131191     7.945737723     3.452705458
 H      -11.313347851     8.136469482     1.011731099
 H       -7.509508350    10.044817858     1.684742395
 H       -7.813336451     9.813081662     4.103032107
 H      -10.070979782     8.780332688    -0.840581097
 H       -7.339239187    10.186204736    -0.274460104
 H       -7.189717347     7.041437629    -2.389834828
 H       -5.153471999     5.777695531    -2.788439683
 H       -3.101667320     9.371653861    -3.969353345
 H       -5.126793030    10.671702414    -3.619840699
 H       -1.905413116     7.366173249    -3.999196297
 H       -3.421775900     4.811295679    -3.122934897
 H       -0.172402147     6.393041487    -4.342223070
 H        1.862690682     5.126401787    -4.727848382
 H       -0.231850529     1.488471733    -3.581239348
 H       -2.232953866     2.803192052    -3.161949747
 H      -12.614034482    11.771652054     4.502292064
 H      -11.320653757    10.985634023     3.556222286
 H       -9.823751827    11.336376373     5.743654720
 H      -11.347367556    11.641002144     6.573450359
 H      -11.339257182     9.334028991     6.884495047
 H      -12.066538830     9.311858087     5.264801607
 H        2.269258212    -1.027015393     0.070758453
 H        2.269922520     0.570568008     0.857318846
 H        2.278624448     0.449603162    -0.922463378
 H        4.191331360     2.171944921    -6.355837511
 H        3.525146212     3.812123157    -6.163852375
 H        2.557975876     2.547965093    -6.960234098
 H        3.965500435     3.719562841    -3.072054352
 H        3.316172037     2.361912692    -2.121392130
 H        4.688579887     2.098176470    -3.228858237
 H        1.424366663     0.142991798    -5.243028628
 H        3.106840540    -0.168969483    -4.751948902
 H        1.849238860     0.048554251    -3.512441487
 H       -9.416026472     8.075957794    -3.428791557
 H      -10.240149361     9.656109139    -3.479399874
 H       -9.077337538     9.212510228    -4.754196608
 H       -6.978534240    12.224790812    -2.510384183
 H       -7.461850808    11.839379195    -4.185254905
 H       -8.698791308    12.236521129    -2.967072213
 H       -2.164893683    13.383603942     1.523202622
 H       -1.595193935    13.763892657    -0.120584145
 H       -2.903801228    14.724066115     0.612504250
 H       -4.886937043    12.335155055    -2.407424400
 H       -4.635121892    14.046570402    -1.960398868
 H       -3.274812051    13.068709457    -2.567072626
 H       -0.240487690    -0.397205528    -2.452805781
 H       -0.319234979    -1.929037348    -1.545779772
 H       -1.730601075    -0.841596242    -1.585382046
 H       -0.283877724    -0.365280980     2.447950521
 H       -1.711803344    -0.943921768     1.556498948
 H       -0.221984326    -1.918441451     1.577360162

