139   

Si        0.000000000     0.000000000     0.000000000
 C        1.869034182     0.000000000     0.000000000
 C       -0.624315321     1.737191209     0.000000000
 C       -0.076838417     2.678621882    -0.879614189
 C       -0.539615942     3.993653046    -0.889366551
 C       -1.563454390     4.397034276    -0.027045415
 C       -2.112786164     3.452488066     0.849283261
 C       -1.650462595     2.138490094     0.863173075
 C       -2.080868658     5.760964637    -0.000435246
 C       -1.644648917     6.763410662    -0.782038666
 C       -2.168692542     8.125066474    -0.748121433
 C       -3.192861020     8.513076935     0.119945071
 C       -3.665638735     9.824695555     0.121208661
 C       -3.128377991    10.773937541    -0.754128056
 C       -2.103318218    10.389061493    -1.627006669
 C       -1.628753588     9.079844355    -1.620514856
Si       -3.751690834    12.508831664    -0.754485428
 C       -2.288733829    13.607397821    -0.613622575
 C       -1.921780025    14.535362657    -1.506544856
 C       -0.744129783    15.397192397    -1.361149439
 C       -0.466705367    16.332755481    -2.369157667
 C        0.634357677    17.171004622    -2.279412932
 C        1.501318881    17.073888275    -1.178039302
 C        1.253839725    16.118756851    -0.186588073
 C        0.153913856    15.273273715    -0.296881972
 N        2.613710765    17.978186391    -1.165543766
 C        2.225792815    19.330121975    -0.700033796
 C        3.812586407    17.458972877    -0.483337478
 C        1.931009436    19.437173178     0.809169150
 C        0.746420809    20.365415342     1.138020528
 N       -0.594080822    19.745610712     1.048885373
 C       -0.738577964    18.505343479     1.708671952
 C       -0.139493630    18.315785440     2.972383498
 C       -0.268887132    17.106222277     3.637414759
 C       -1.001520716    16.048612128     3.082353063
 C       -1.629681872    16.256808167     1.851103842
 C       -1.537241675    17.472622916     1.187899805
 C       -1.179699217    19.832816592    -0.300718124
 C       -1.116301838    14.785073685     3.814462137
 C       -1.797346612    13.728230773     3.353474641
Si       -2.010734383    12.105618702     4.172571284
 C       -3.824703813    11.868498319     4.417795942
 C       -4.643052029    12.962013597     4.720484687
 C       -6.013799255    12.789230186     4.906815367
 C       -6.596710274    11.524355263     4.786435926
 C       -5.775137463    10.431709934     4.479763474
 C       -4.404703451    10.600140604     4.298049264
 C       -8.025737681    11.295756256     4.972567893
 C       -8.922015795    12.252210131     5.268705447
 C      -10.351004857    12.021788842     5.454534181
 C      -10.931327169    10.754901200     5.338618020
 C      -12.301446111    10.579282509     5.524181800
 C      -13.124258043    11.669779868     5.831834527
 C      -12.545784760    12.938459757     5.948636346
 C      -11.175792990    13.111072599     5.761787215
Si      -14.935410592    11.405023424     6.071780610
 C      -15.183886700    10.181594019     7.462696959
 C      -15.791728770    13.009741520     6.501776194
 C      -15.655096225    10.726769764     4.485888698
 C       -1.324944885    10.792711747     3.035233891
 C       -1.155751288    12.032866240     5.828904009
 C       -4.681883698    12.805061531    -2.346817990
 C       -4.887643350    12.837711962     0.688294040
 C       -0.633708792    -0.848655811    -1.539913991
 C       -0.606578880    -0.917128008     1.511954390
 H        0.724163300     2.422236591    -1.578743743
 H       -0.095103418     4.708024664    -1.580178620
 H       -2.911229379     3.744863565     1.528816363
 H       -2.117342910     1.447040679     1.569953824
 H       -2.882516377     5.929953850     0.725099591
 H       -0.844651051     6.597144258    -1.509074977
 H       -3.630569563     7.790867422     0.806595472
 H       -4.464903695    10.070657664     0.827956168
 H       -1.642599827    11.092862699    -2.327171095
 H       -0.828993118     8.797237012    -2.302544516
 H       -1.687700027    13.424331627     0.294140744
 H       -2.489422367    14.733277100    -2.424779622
 H       -1.127729831    16.410574205    -3.231680450
 H        0.849479254    17.892637178    -3.065329536
 H        1.915740779    16.025123818     0.670495069
 H       -0.010127033    14.519263926     0.476661831
 H        4.659978989    18.127545233    -0.714150952
 H        4.057617386    16.463064437    -0.892742213
 H        3.724582625    17.375220530     0.610201473
 H       -1.011054526    20.838464479    -0.718416709
 H       -2.274411070    19.697834761    -0.225318685
 H       -0.779481128    19.085021931    -1.007763949
 H        0.424344274    19.122247963     3.432116408
 H        0.207721104    16.981230387     4.609680308
 H       -2.233323538    15.463757348     1.401322654
 H       -2.055067614    17.588269855     0.239645158
 H       -0.586737053    14.783492688     4.774105745
 H       -2.321086790    13.780359826     2.382982423
 H       -4.242773650    13.976971829     4.818057091
 H       -6.630306490    13.654012436     5.145466606
 H       -6.210093331     9.439106445     4.381891107
 H       -3.812870329     9.711633542     4.059801737
 H       -8.341526023    10.255164435     4.853235334
 H       -8.606951386    13.293141597     5.389311590
 H      -10.313011010     9.891088717     5.100940143
 H      -12.696965169     9.564877542     5.420202803
 H      -13.138525590    13.825764887     6.187130561
 H      -10.744892040    14.106254670     5.856999021
 H        3.052979144    20.020039058    -0.979387574
 H        1.342974488    19.651163327    -1.295712099
 H        1.732028989    18.426751970     1.224680869
 H        2.832089734    19.793109116     1.340823869
 H        0.854582876    20.748028173     2.181479903
 H        0.768413439    21.266681045     0.487839625
 H        2.268848734    -1.028989863     0.031410047
 H        2.268865126     0.539415356     0.877989773
 H        2.277952518     0.487888079    -0.902123358
 H      -16.256171966     9.988143774     7.641559094
 H      -14.750706519    10.557615637     8.407508093
 H      -14.702107545     9.212674997     7.242226062
 H      -15.389177011    13.447026665     7.432906925
 H      -15.674738262    13.759565310     5.699197938
 H      -16.875222274    12.854593561     6.652191483
 H      -15.182182571     9.769870831     4.202462173
 H      -16.740503055    10.547693075     4.580881635
 H      -15.505276895    11.429565170     3.646144945
 H       -1.918423863    10.702549407     2.105017197
 H       -0.286421881    11.023856681     2.735280814
 H       -1.315466139     9.799091220     3.515897785
 H       -1.543522380    12.804405666     6.518340941
 H       -1.306347046    11.052993417     6.316489208
 H       -0.067061625    12.189521450     5.728151412
 H       -4.040600975    12.637046398    -3.230102082
 H       -5.545797175    12.121586785    -2.436214046
 H       -5.070027608    13.837294916    -2.403467268
 H       -4.448458238    12.523674288     1.652806649
 H       -5.127265756    13.913636336     0.775137660
 H       -5.844952509    12.296416457     0.579547989
 H       -0.291034045    -0.333138245    -2.454825244
 H       -0.286007905    -1.895116464    -1.595240985
 H       -1.738455749    -0.861899831    -1.564272823
 H       -0.300131536    -0.406221520     2.442418160
 H       -1.707363948    -1.003802886     1.522567082
 H       -0.195698578    -1.942057401     1.547084363

