139   

Si        0.000000000     0.000000000     0.000000000
 C        1.869305907     0.000000000     0.000000000
 C       -0.634104383     1.733976546     0.000000000
 C        0.063465584     2.746480430    -0.668030182
 C       -0.414649626     4.056345399    -0.668589599
 C       -1.600190969     4.383632150    -0.004836018
 C       -2.300083368     3.368090655     0.659514571
 C       -1.825947278     2.058719042     0.659731455
 C       -2.139939351     5.738305943     0.022781676
 C       -1.574612656     6.802862126    -0.571709083
 C       -2.128457833     8.151958110    -0.534042435
 C       -1.450278617     9.186472849    -1.191969886
 C       -1.948285256    10.488332456    -1.178318938
 C       -3.131565292    10.785187774    -0.494536254
 C       -3.805835344     9.754732157     0.171235130
 C       -3.307637511     8.454215370     0.153928667
Si       -3.840908303    12.490470497    -0.440377468
 C       -5.655884333    12.232396850    -0.493270243
 C       -6.536633127    12.617024274     0.439352142
 C       -7.979560901    12.382729375     0.342564406
 C       -8.811414925    12.829135893     1.379658845
 C      -10.181908913    12.630220687     1.332120501
 C      -10.757294373    11.906830975     0.267662945
 C       -9.926641920    11.452006653    -0.768747388
 C       -8.562235385    11.714605681    -0.738122576
 N      -12.163278222    11.728858269     0.261487156
 C      -12.726274370    11.138754099     1.494690344
 C      -12.733527726    11.125449329    -0.955964876
 C      -12.223102435     9.717544193     1.814631150
 C      -11.207602044     9.723892541     2.975116181
 N      -10.403653408     8.488192935     3.080582224
 C       -9.498837418     8.306453587     1.996444831
 C       -8.499373130     9.282605532     1.823099115
 C       -7.587616159     9.165781280     0.788350694
 C       -7.591913647     8.048197271    -0.059633087
 C       -8.566263149     7.068411915     0.136961430
 C       -9.514687379     7.190933407     1.148944259
 C      -11.215718558     7.313543247     3.441255773
 C       -6.600766265     7.984167304    -1.136453262
 C       -6.503166444     6.973475376    -2.008588837
Si       -5.276492972     6.861724864    -3.366086896
 C       -6.225649738     6.765771929    -4.947634143
 C       -7.490735523     7.356980639    -5.039074931
 C       -8.217650597     7.291928840    -6.226657271
 C       -7.693232017     6.646884992    -7.350417664
 C       -6.423739705     6.061395577    -7.257528031
 C       -5.696947537     6.119497995    -6.070703781
 C       -8.417409151     6.554000406    -8.613889213
 C       -9.638161584     7.069989028    -8.836552084
 C      -10.360825612     6.976082463   -10.100832059
 C       -9.837408047     6.325831611   -11.221905891
 C      -10.562460696     6.259581396   -12.411059799
 C      -11.827386635     6.849463465   -12.508005038
 C      -12.354094862     7.501847199   -11.386214287
 C      -11.630295103     7.560877514   -10.197711480
Si      -12.787591224     6.761899528   -14.082345596
 C      -11.620387650     6.707676509   -15.541892524
 C      -13.830166062     5.211462228   -14.049260702
 C      -13.890588685     8.262700548   -14.245432145
 C       -4.219893949     8.395481705    -3.471653307
 C       -4.214313162     5.355073713    -3.091313943
 C       -3.287602237    13.341639052     1.122918785
 C       -3.332646911    13.479023310    -1.938244403
 C       -0.632899754    -0.852811889    -1.537573881
 C       -0.604260999    -0.906983312     1.518964533
 H        0.997219785     2.551848721    -1.202693884
 H        0.148065201     4.826252870    -1.193446550
 H       -3.226940044     3.601733505     1.181554648
 H       -2.415184871     1.308860221     1.194878276
 H       -3.077668153     5.844431875     0.579510164
 H       -0.640596866     6.702868506    -1.130610447
 H       -0.525892023     8.973506057    -1.724936481
 H       -1.382048495    11.253423688    -1.714952781
 H       -4.730985029     9.930399747     0.732854424
 H       -3.854655557     7.669830184     0.677348267
 H       -5.988320687    11.711760426    -1.407880311
 H       -6.241316361    13.142750263     1.356119931
 H       -8.379296763    13.359823076     2.228235719
 H      -10.816493048    13.033516927     2.117067652
 H      -10.331949276    10.882498370    -1.599998357
 H       -7.941086237    11.364179296    -1.565237164
 H      -13.834588773    11.177085528    -0.901087562
 H      -12.442725336    10.075359228    -1.118484390
 H      -12.428676840    11.721338801    -1.834957427
 H      -11.750311806     7.527850868     4.382771636
 H      -10.545656193     6.457377993     3.636764937
 H      -11.954615592     7.018646362     2.680937393
 H       -8.455605470    10.138759967     2.494397174
 H       -6.843223384     9.953263556     0.646599628
 H       -8.597501853     6.191988810    -0.511031795
 H      -10.268768125     6.418762730     1.262591843
 H       -5.933184527     8.857706114    -1.164181483
 H       -7.181029129     6.106629517    -1.955272609
 H       -7.950916263     7.877047707    -4.191674031
 H       -9.202643553     7.752549143    -6.272010926
 H       -5.998155950     5.553842892    -8.120921686
 H       -4.713722996     5.641485223    -6.054721573
 H       -7.887240201     6.016657021    -9.405915254
 H      -10.168580450     7.607591796    -8.045260295
 H       -8.853518116     5.862336861   -11.174307780
 H      -10.100377419     5.736067758   -13.252627943
 H      -13.336645988     7.981300673   -11.402679328
 H      -12.057799733     8.070791715    -9.336383633
 H      -12.512885112    11.833320666     2.337865318
 H      -13.834931322    11.136011269     1.389854714
 H      -13.073332336     9.058333586     2.059879807
 H      -11.751849870     9.269094827     0.917048310
 H      -10.504332717    10.582119579     2.859228760
 H      -11.728248232     9.875773223     3.945673284
 H        2.268286738    -1.028379903     0.057650146
 H        2.269035154     0.560288531     0.864790100
 H        2.279466903     0.462449664    -0.914708407
 H      -12.174818592     6.719941906   -16.497061049
 H      -10.996681513     5.796773221   -15.534317597
 H      -10.939862824     7.578475043   -15.541811471
 H      -13.203034515     4.307156399   -13.950574889
 H      -14.533469125     5.217929696   -13.197221033
 H      -14.425179990     5.106517697   -14.973309265
 H      -13.305454600     9.197830512   -14.178436077
 H      -14.415137788     8.268564414   -15.217421721
 H      -14.660695665     8.293407962   -13.455076491
 H       -4.829659293     9.293244932    -3.678066839
 H       -3.671446617     8.576645771    -2.526911853
 H       -3.469677162     8.311844735    -4.276982273
 H       -4.814773401     4.429253627    -3.050371829
 H       -3.462726288     5.232508842    -3.890489949
 H       -3.660634911     5.430984657    -2.134107840
 H       -3.576185847    12.766827843     2.021980409
 H       -2.189009470    13.458568330     1.149066106
 H       -3.729765973    14.349931771     1.212498948
 H       -3.579693034    12.950962758    -2.877233474
 H       -3.848588628    14.456424770    -1.964972704
 H       -2.246933284    13.679857118    -1.943664385
 H       -0.287134894    -0.340542524    -2.453315221
 H       -0.286553529    -1.899962460    -1.588975433
 H       -1.737472545    -0.864147441    -1.564809907
 H       -0.315534839    -0.375427681     2.443851026
 H       -1.703228132    -1.012770594     1.523220068
 H       -0.175351228    -1.923525641     1.573376480

