139   

Si        0.000000000     0.000000000     0.000000000
 C        1.869364331     0.000000000     0.000000000
 C       -0.652790427     1.726771221     0.000000000
 C        0.192569541     2.827933765     0.164283444
 C       -0.321848003     4.124511661     0.161124738
 C       -1.691015566     4.349807861    -0.002541973
 C       -2.537487490     3.244529070    -0.164535002
 C       -2.026979129     1.949302805    -0.162689040
 C       -2.272645228     5.688325380    -0.012248710
 C       -1.571388407     6.825659938     0.131874719
 C       -2.147090026     8.166490966     0.123034912
 C       -3.515391629     8.399932073    -0.040129390
 C       -4.021326127     9.699742656    -0.042051269
 C       -3.165434918    10.794483478     0.112510663
 C       -1.793205257    10.564417691     0.275596139
 C       -1.292412971     9.265381867     0.283260604
Si       -3.809330935    12.524680964     0.113553700
 C       -2.485289360    13.599939044    -0.552442096
 C       -1.902442273    14.618948542     0.093272280
 C       -0.845325241    15.452556522    -0.481267986
 C       -0.304410625    16.494927027     0.284325334
 C        0.697614771    17.310484519    -0.216581864
 C        1.165677751    17.138752794    -1.537672230
 C        0.621889885    16.090609477    -2.308026276
 C       -0.347770011    15.254757647    -1.772833573
 N        2.179355050    17.961971224    -2.047989182
 C        2.326938260    19.315034972    -1.487322356
 C        2.422141480    17.902755869    -3.499145628
 C        1.124680208    20.231234771    -1.777299121
 C        1.441746382    21.721284810    -1.561665805
 N        2.504362031    22.292446765    -2.425223299
 C        2.559854972    21.735645145    -3.727669465
 C        1.408597879    21.849821791    -4.533863010
 C        1.402390187    21.325544480    -5.815272881
 C        2.536499994    20.685542528    -6.339327101
 C        3.681754455    20.598148675    -5.545271857
 C        3.707840463    21.131100872    -4.260641213
 C        3.792810098    22.454570743    -1.731328649
 C        2.479522190    20.147492321    -7.700508521
 C        3.501605762    19.520137041    -8.295857131
Si        3.493073851    18.826343812    -9.991877403
 C        3.826260789    17.020637004    -9.802791785
 C        3.349037021    16.357892230    -8.665482569
 C        3.582271775    14.995408129    -8.490444474
 C        4.290273799    14.263549238    -9.448457207
 C        4.763419545    14.929100038   -10.586827955
 C        4.534885160    16.292418165   -10.763851473
 C        4.555850404    12.835686641    -9.303204109
 C        4.155041245    12.089831043    -8.259617412
 C        4.415331335    10.662445332    -8.105090002
 C        5.123750210     9.917256620    -9.051309421
 C        5.348658901     8.553948209    -8.861216608
 C        4.858720338     7.902769820    -7.724406129
 C        4.146085027     8.647404664    -6.775654123
 C        3.930953753    10.010234687    -6.963337514
Si        5.151034175     6.098219154    -7.463354473
 C        5.417659339     5.242217351    -9.103831305
 C        6.668697697     5.898532150    -6.391711377
 C        3.670193158     5.334252573    -6.616374932
 C        1.846836842    19.055471319   -10.838659488
 C        4.841895594    19.657246399   -10.978995045
 C       -5.299685248    12.672898819    -1.002963028
 C       -4.274128898    12.987441841     1.861277271
 C       -0.611033875    -0.880466302    -1.531554330
 C       -0.623953432    -0.871288303     1.530761106
 H        1.271988568     2.715733836     0.297713911
 H        0.358824124     4.964478980     0.289163792
 H       -3.607436353     3.397695798    -0.293291489
 H       -2.736095164     1.127011936    -0.292988427
 H       -3.357525720     5.715412829    -0.149271584
 H       -0.486165894     6.796169468     0.269275546
 H       -4.200318824     7.563754083    -0.166935709
 H       -5.099918225     9.820666543    -0.172647205
 H       -1.077715797    11.385029850     0.397898447
 H       -0.223536066     9.105333938     0.412992631
 H       -2.186767326    13.334993661    -1.580186053
 H       -2.177659119    14.910015931     1.115261442
 H       -0.669331192    16.663724257     1.297939855
 H        1.114938405    18.086833251     0.417026036
 H        0.959361435    15.915751866    -3.324859947
 H       -0.737405068    14.439534286    -2.385349853
 H        3.191802018    18.639059908    -3.791788511
 H        1.521716721    18.105007475    -4.102732080
 H        2.817086807    16.903829795    -3.760114715
 H        3.639298908    23.109018825    -0.854453377
 H        4.504015113    22.978069515    -2.395241471
 H        4.253063100    21.515133798    -1.389194226
 H        0.529474970    22.358104905    -4.143304283
 H        0.504181562    21.418308350    -6.426574276
 H        4.579682951    20.114479889    -5.933933273
 H        4.619290448    21.054928452    -3.675165746
 H        1.512380656    20.310332905    -8.193153753
 H        4.462233109    19.374707039    -7.773764463
 H        2.788128136    16.878432940    -7.881305476
 H        3.204360897    14.503058096    -7.595762704
 H        5.316931672    14.377374542   -11.344358997
 H        4.929394082    16.759306838   -11.670061342
 H        5.122134996    12.388168058   -10.124813453
 H        3.587680027    12.540452614    -7.439212030
 H        5.509277304    10.398452751    -9.948322040
 H        5.912258736     8.025239180    -9.634851664
 H        3.737876858     8.192437826    -5.868610937
 H        3.376268667    10.572010538    -6.213583826
 H        2.502480618    19.232187177    -0.391397230
 H        3.261261740    19.752434176    -1.909402629
 H        0.773987982    20.066224543    -2.816502990
 H        0.267635439    19.939668410    -1.139279518
 H        0.520933999    22.320348663    -1.765564763
 H        1.698492107    21.903446566    -0.496016228
 H        2.267135508    -1.029298238    -0.053301019
 H        2.276388679     0.463205318     0.916270152
 H        2.272730435     0.554924458    -0.865854396
 H        5.522345659     4.150552870    -8.971686590
 H        6.330458172     5.601675510    -9.610141077
 H        4.566202509     5.413035823    -9.787215399
 H        7.559879468     6.343120944    -6.870148141
 H        6.538681409     6.395780658    -5.413660218
 H        6.888570195     4.833883480    -6.199025485
 H        2.744172497     5.511356982    -7.193441098
 H        3.790306075     4.241416338    -6.509720550
 H        3.515546545     5.749361494    -5.604932794
 H        1.030431420    18.570564683   -10.272847823
 H        1.592948922    20.125110666   -10.946651428
 H        1.851692289    18.610798517   -11.850525338
 H        5.839276288    19.463603171   -10.544282214
 H        4.858040510    19.301196846   -12.024170550
 H        4.699536018    20.753259144   -11.004604300
 H       -5.074331409    12.317950699    -2.024908990
 H       -6.152775005    12.083432416    -0.624698487
 H       -5.632121107    13.723870850    -1.084053554
 H       -3.406602870    12.911927201     2.542031253
 H       -4.656394696    14.022158099     1.916081606
 H       -5.060318642    12.319795476     2.257216774
 H       -0.280508001    -0.360758914    -2.449274395
 H       -0.228836874    -1.915391006    -1.579020783
 H       -1.713660312    -0.931119167    -1.559909189
 H       -0.275705303    -0.365055710     2.449451553
 H       -1.727904593    -0.889046186     1.563707005
 H       -0.271291804    -1.916772516     1.571511506

