139   

Si        0.000000000     0.000000000     0.000000000
 C        1.869702743     0.000000000     0.000000000
 C       -0.652859285     1.725045976     0.000000000
 C        0.200403494     2.829865633     0.070045803
 C       -0.316391596     4.125273191     0.068583814
 C       -1.693274026     4.344405095    -0.021993919
 C       -2.547206560     3.235642075    -0.094814196
 C       -2.035400414     1.941384757    -0.077363719
 C       -2.276661437     5.681525689    -0.027002205
 C       -1.566733439     6.819485326     0.053248725
 C       -2.144620973     8.158406928     0.048674021
 C       -1.285574330     9.260709402     0.138414863
 C       -1.790625271    10.558850045     0.137848883
 C       -3.170174066    10.783081013     0.071042076
 C       -4.031849560     9.682162318    -0.011746553
 C       -3.522191790     8.385256704    -0.027235885
Si       -3.872995500    12.489487237     0.068288433
 C       -4.743521277    12.748053487    -1.525892568
 C       -4.815705990    11.811016624    -2.480026528
 C       -5.497445855    11.971334001    -3.764653970
 C       -5.481178011    10.888345398    -4.659437154
 C       -6.106323309    10.973808483    -5.890199829
 C       -6.778248478    12.156791170    -6.262052697
 C       -6.787073540    13.243695777    -5.377266268
 C       -6.138434088    13.149173503    -4.148479269
 N       -7.397549312    12.172703361    -7.541232177
 C       -8.414775115    11.100572679    -7.706342478
 C       -7.852847686    13.484655522    -8.027520074
 C       -9.192975931    10.696326186    -6.441499467
 C      -10.668554270    11.134689914    -6.400931958
 N      -11.013419866    12.047553632    -5.291695046
 C      -10.795247205    11.494653686    -3.995927123
 C      -11.606571688    10.416951100    -3.600075214
 C      -11.433271902     9.844516371    -2.349089483
 C      -10.475623576    10.340647705    -1.450701110
 C       -9.680335511    11.418817046    -1.847159264
 C       -9.831922522    11.991021721    -3.105461162
 C      -10.497934984    13.413117934    -5.481892441
 C      -10.338023255     9.694523117    -0.142488102
 C       -9.464911973    10.070846485     0.801526102
Si       -9.294544890     9.261286620     2.436998950
 C       -7.586898046     8.599540707     2.644290983
 C       -7.354019950     7.221057188     2.657076485
 C       -6.061667662     6.721820882     2.813974652
 C       -4.976594567     7.586464944     2.980082809
 C       -5.212373927     8.967681420     2.967535317
 C       -6.499389849     9.469594641     2.793434925
 C       -3.610123898     7.103624820     3.147184981
 C       -3.261889949     5.805985643     3.175031514
 C       -1.898685833     5.313973782     3.341604664
 C       -0.802395093     6.168525931     3.491250188
 C        0.483356787     5.654408755     3.647731146
 C        0.698969167     4.271140231     3.669728536
 C       -0.397278632     3.413779283     3.526147413
 C       -1.680818997     3.930715743     3.364152911
Si        2.410875071     3.616456942     3.878171688
 C        3.180783500     4.387889095     5.396621803
 C        2.387352600     1.757515318     4.074629845
 C        3.401699137     4.065433429     2.356606050
 C       -9.594571144    10.557912001     3.752266624
 C      -10.551139205     7.892343302     2.637934657
 C       -5.111774238    12.653235190     1.457867295
 C       -2.535499896    13.778543211     0.252637998
 C       -0.621345899    -0.890539048    -1.520181681
 C       -0.611165327    -0.853969213     1.547763394
 H        1.286493698     2.721693880     0.131372027
 H        0.367995963     4.969046049     0.142889156
 H       -3.622829945     3.386487074    -0.163245738
 H       -2.749415869     1.115476376    -0.129951259
 H       -3.368001393     5.707625582    -0.099358525
 H       -0.476257064     6.790291287     0.134270513
 H       -0.210767317     9.104722536     0.202548816
 H       -1.072341585    11.380155326     0.197095308
 H       -5.121244568     9.794311494    -0.058040757
 H       -4.213011483     7.544979601    -0.087500282
 H       -5.207515721    13.736188289    -1.649146785
 H       -4.351549595    10.817449336    -2.369558083
 H       -4.969657962     9.965198454    -4.380936242
 H       -6.075777021    10.134802879    -6.582014722
 H       -7.285506201    14.170931229    -5.641029424
 H       -6.147548647    14.008369263    -3.477453856
 H       -8.085872132    13.396587371    -9.103718852
 H       -7.029131700    14.215404756    -7.940393244
 H       -8.739063090    13.882606955    -7.511736122
 H      -10.904758737    13.815315593    -6.425306092
 H       -9.398075938    13.479754550    -5.512185430
 H      -10.869525694    14.059138846    -4.666526042
 H      -12.369239760    10.040183683    -4.277548378
 H      -12.060051928     9.002030059    -2.058091200
 H       -8.917318204    11.813669166    -1.174338091
 H       -9.176995582    12.808835715    -3.396662198
 H      -11.032595784     8.854692311    -0.006258292
 H       -8.774625912    10.913552217     0.636943879
 H       -8.161011952     6.493123661     2.539760436
 H       -5.906844257     5.645219574     2.802069247
 H       -4.377860762     9.658286582     3.083867092
 H       -6.622072932    10.556394602     2.788603398
 H       -2.854078999     7.888428820     3.244414382
 H       -4.018737086     5.022984224     3.071052163
 H       -0.947015823     7.247500968     3.477920286
 H        1.301689530     6.371501108     3.753597753
 H       -0.289246554     2.325712007     3.527775643
 H       -2.519534879     3.247410838     3.244330627
 H       -9.113603240    11.382604073    -8.521427530
 H       -7.851068511    10.214026131    -8.087435577
 H       -9.144965688     9.593504054    -6.335812546
 H       -8.683919277    11.056799903    -5.522568152
 H      -10.963845712    11.633099194    -7.350350491
 H      -11.326448707    10.240129606    -6.310033340
 H        2.267555054    -1.030199011     0.005997310
 H        2.277367703     0.516998872     0.887402030
 H        2.273025543     0.503928086    -0.896470026
 H        4.206236298     4.014681900     5.562700235
 H        2.591707256     4.157267645     6.302903059
 H        3.235926027     5.487257011     5.311552887
 H        1.791940133     1.454150563     4.954265649
 H        1.952615760     1.260744500     3.188993297
 H        3.407125555     1.357119541     4.211594923
 H        3.431649803     5.158720851     2.204089666
 H        4.443609070     3.710591064     2.436905592
 H        2.964647749     3.616220687     1.446712518
 H       -8.884345724    11.398865010     3.670373036
 H      -10.614423140    10.975403322     3.674193069
 H       -9.486171142    10.128417672     4.764388036
 H      -10.448025823     7.122303013     1.853155683
 H      -10.443494616     7.390342778     3.616197339
 H      -11.581749258     8.287461826     2.582655620
 H       -5.968160875    11.969126111     1.309253559
 H       -4.652059671    12.413754790     2.433149132
 H       -5.512726709    13.679765556     1.520702405
 H       -1.812701774    13.731314699    -0.582265214
 H       -2.958173301    14.798847154     0.261380214
 H       -1.972278377    13.645787063     1.193073107
 H       -0.283898625    -0.386682432    -2.444273936
 H       -0.254484745    -1.931208280    -1.556026446
 H       -1.724600865    -0.924970195    -1.549153489
 H       -0.251742015    -0.339546971     2.457401920
 H       -1.714455555    -0.868730641     1.591396589
 H       -0.261363111    -1.899715833     1.594994296

