139   

Si        0.000000000     0.000000000     0.000000000
 C        1.871693345     0.000000000     0.000000000
 C       -0.600542976     1.744918724     0.000000000
 C       -0.024952713     2.660808973    -0.888657690
 C       -0.454548222     3.984822796    -0.914680689
 C       -1.483225057     4.424442849    -0.074122703
 C       -2.065461825     3.504366108     0.804707106
 C       -1.630180732     2.179720713     0.841655013
 C       -1.948356390     5.809950651    -0.086419009
 C       -1.426621644     6.746484135    -0.896108043
 C       -1.824144043     8.145431516    -0.977645945
 C       -1.142015559     8.954791189    -1.899012898
 C       -1.461203363    10.300003515    -2.037862222
 C       -2.471719569    10.873035410    -1.251870357
 C       -3.147845534    10.072270027    -0.328810104
 C       -2.823210811     8.720079213    -0.189544963
Si       -2.829110272    12.661150952    -1.501073427
 C       -4.463855281    13.189979271    -0.862056046
 C       -4.610324284    14.126121031     0.084758357
 C       -5.893079684    14.581832097     0.626969503
 C       -5.875962614    15.574254461     1.619136375
 C       -7.055405938    16.048486167     2.172951222
 C       -8.287301241    15.567205669     1.704461995
 C       -8.315298142    14.595393465     0.698415821
 C       -7.124172286    14.109716134     0.166199584
 N       -9.453481571    16.117907814     2.339743508
 C       -9.855399344    15.354415057     3.541055327
 C      -10.570577593    16.360370538     1.408092069
 C      -10.457214793    13.967830991     3.250034509
 C       -9.945741578    12.852294666     4.178933226
 N       -8.604330639    12.316724581     3.910180877
 C       -8.357586372    11.638380480     2.705349571
 C       -9.353529839    11.415751803     1.735380185
 C       -9.052341585    10.738438215     0.561625664
 C       -7.796688033    10.155194263     0.361606500
 C       -6.817570033    10.340521264     1.345319067
 C       -7.078701823    11.079831224     2.487239192
 C       -7.498016845    13.151519532     4.410216627
 C       -7.532176499     9.452718416    -0.894703049
 C       -6.368983487     8.859420582    -1.191021122
Si       -5.991698601     7.969948813    -2.747283736
 C       -5.576721509     6.236228252    -2.264490447
 C       -6.074198395     5.747015304    -1.050417696
 C       -5.790206622     4.446871348    -0.640649562
 C       -5.015622380     3.600325678    -1.439079242
 C       -4.520547361     4.090688216    -2.654036321
 C       -4.792926152     5.396040086    -3.061679221
 C       -4.701050063     2.232706280    -1.036662841
 C       -5.126671890     1.669141475     0.107158689
 C       -4.827993913     0.307128567     0.533649651
 C       -4.048147543    -0.566896140    -0.228661320
 C       -3.786478141    -1.861741417     0.216039078
 C       -4.291372556    -2.308812258     1.443323641
 C       -5.067098383    -1.433540497     2.211391389
 C       -5.330941214    -0.141651403     1.761399922
Si       -3.929608374    -4.028794285     2.008452088
 C       -4.685116333    -5.224856820     0.787478228
 C       -2.076449807    -4.267249565     2.070576736
 C       -4.646298652    -4.336297173     3.706643791
 C       -7.458228096     7.937400400    -3.903218169
 C       -4.544570627     8.797202364    -3.581442009
 C       -1.449769996    13.621153964    -0.681428486
 C       -2.853025997    13.024751626    -3.337825803
 C       -0.602257618    -0.856851024    -1.549168202
 C       -0.616371190    -0.891621850     1.518322898
 H        0.775185471     2.378950781    -1.578184828
 H        0.017918083     4.677471500    -1.609192612
 H       -2.873331495     3.820129381     1.462396945
 H       -2.128173735     1.504365376     1.544173189
 H       -2.763155566     6.041276107     0.602631648
 H       -0.617064879     6.477731323    -1.585507417
 H       -0.354804771     8.525693036    -2.515894009
 H       -0.894698706    10.876264144    -2.775038269
 H       -3.938691392    10.478979423     0.309501437
 H       -3.358031166     8.110223649     0.536784952
 H       -5.330911253    12.681332375    -1.311799605
 H       -3.753846391    14.637331690     0.547718265
 H       -4.924086972    15.971854985     1.970518832
 H       -7.041426350    16.811006443     2.950423866
 H       -9.261792382    14.211998604     0.325828231
 H       -7.160915717    13.341017294    -0.607693884
 H      -11.331349002    16.968234798     1.927089614
 H      -11.056693255    15.454246802     1.017948783
 H      -10.201394481    16.953231463     0.552759001
 H       -7.815680773    13.735891843     5.287820094
 H       -7.107590131    13.847671332     3.645353330
 H       -6.671381713    12.497821309     4.743393759
 H      -10.366140806    11.774865429     1.883852024
 H       -9.826507587    10.630505992    -0.198684533
 H       -5.827127428     9.901254420     1.215042625
 H       -6.291270826    11.217756404     3.222759021
 H       -8.387586272     9.458354787    -1.582056791
 H       -5.525320133     8.869450931    -0.481598611
 H       -6.692771319     6.359111313    -0.384492231
 H       -6.183468716     4.093738356     0.310737342
 H       -3.905563374     3.450790338    -3.283687223
 H       -4.369170546     5.730785187    -4.011538992
 H       -4.070247009     1.678363190    -1.737016318
 H       -5.753679139     2.234232993     0.803708796
 H       -3.654290212    -0.239565540    -1.190267710
 H       -3.178770511    -2.503750107    -0.428540372
 H       -5.487957556    -1.727416859     3.176372947
 H       -5.938142874     0.523081267     2.372740704
 H       -8.962743103    15.273251275     4.198614862
 H      -10.587228467    15.983422756     4.095746880
 H      -11.559458717    14.018069415     3.322847438
 H      -10.246102556    13.691692458     2.196893448
 H       -9.968286542    13.200443950     5.237248184
 H      -10.653461561    11.987504612     4.133416929
 H        2.272178717    -1.027224049     0.052677693
 H        2.270380063     0.557294389     0.866924107
 H        2.279927457     0.470038376    -0.910980320
 H       -4.484155053    -6.272312763     1.072765675
 H       -4.284779716    -5.072893016    -0.230556687
 H       -5.781782858    -5.099464659     0.731722240
 H       -1.611252435    -4.085704605     1.085204422
 H       -1.608458508    -3.573387280     2.792588938
 H       -1.815059548    -5.294700243     2.378856524
 H       -5.744747925    -4.220378024     3.710614070
 H       -4.422645198    -5.361229529     4.053168835
 H       -4.231462042    -3.637494565     4.454735395
 H       -8.330429459     7.446876206    -3.434926056
 H       -7.762448028     8.956994167    -4.197751074
 H       -7.225688664     7.378644707    -4.827298737
 H       -3.653417431     8.802659343    -2.921030396
 H       -4.260859936     8.283460186    -4.515156131
 H       -4.771226086     9.849195875    -3.830454744
 H       -1.426642728    13.442259841     0.408725071
 H       -0.464113236    13.323587795    -1.081691507
 H       -1.559675929    14.707712296    -0.843834796
 H       -3.593030976    12.392514358    -3.860832231
 H       -3.122709634    14.079075815    -3.529385363
 H       -1.870002701    12.844081117    -3.804519171
 H       -0.254106976    -0.332284430    -2.456434304
 H       -0.230807523    -1.895147509    -1.599132970
 H       -1.704806714    -0.893363273    -1.591504926
 H       -0.286470002    -0.386828046     2.443649765
 H       -1.723164480    -0.931039215     1.539563688
 H       -0.247955265    -1.931490165     1.555546995

