139   

Si        0.000000000     0.000000000     0.000000000
 C        1.869008193     0.000000000     0.000000000
 C       -0.658597174     1.724602522     0.000000000
 C        0.190110689     2.835150780    -0.011133300
 C       -0.333051588     4.128487837    -0.010877377
 C       -1.713937410     4.340140516     0.000897398
 C       -2.563664263     3.225488264     0.011955521
 C       -2.044639774     1.933890915     0.011241741
 C       -2.306777335     5.673579145     0.001645478
 C       -1.608628739     6.821869279    -0.008658776
 C       -2.204388398     8.154148554    -0.007880230
 C       -1.358946293     9.271507939    -0.019411493
 C       -1.882485324    10.562412316    -0.019143725
 C       -3.267204301    10.763940327    -0.014499982
 C       -4.114535458     9.650184748    -0.003750093
 C       -3.586977213     8.359954822     0.002238001
Si       -3.989644559    12.462190139    -0.014028703
 C       -5.626007459    12.343329312    -0.829001152
 C       -6.802545370    12.654239229    -0.270321936
 C       -8.088449545    12.542898691    -0.962548144
 C       -9.260471809    12.897624457    -0.276035473
 C      -10.499256073    12.809645962    -0.887213046
 C      -10.604927530    12.331801922    -2.210697173
 C       -9.434862023    11.983473599    -2.902890090
 C       -8.194827613    12.110606421    -2.285886941
 N      -11.894824453    12.262599075    -2.786528557
 C      -12.887877564    11.478808402    -2.013942145
 C      -11.953259235    12.008542697    -4.235340549
 C      -12.339753183    10.262207603    -1.249835328
 C      -11.688396637     9.213032970    -2.168966249
 N      -10.780143702     8.296806111    -1.453027083
 C      -11.343294946     7.539073062    -0.408622412
 C      -12.659603470     7.045232636    -0.537291709
 C      -13.230850237     6.297933709     0.479217688
 C      -12.506176215     5.971081482     1.635010017
 C      -11.192607780     6.433820948     1.746280951
 C      -10.609969339     7.198680467     0.743582388
 C       -9.453442662     8.886676128    -1.204243467
 C      -13.160582005     5.178907596     2.676906040
 C      -12.575684713     4.804186818     3.822508278
Si      -13.387746442     3.812945165     5.131181954
 C      -15.118897837     3.415089223     4.630942989
 C      -16.220812100     3.889127112     5.347903217
 C      -17.518565632     3.571854946     4.945822431
 C      -17.742991099     2.780154423     3.816901142
 C      -16.636673174     2.307977090     3.097138843
 C      -15.340727537     2.620376548     3.497367842
 C      -19.081673454     2.422900482     3.359041830
 C      -20.222883188     2.807750212     3.955232513
 C      -21.561155431     2.449857330     3.496442556
 C      -21.784344981     1.655492977     2.368634621
 C      -23.081157262     1.337701965     1.965576343
 C      -24.185308103     1.802573955     2.687168522
 C      -23.964279981     2.599086567     3.818390923
 C      -22.668625661     2.920366156     4.214632514
Si      -25.907417280     1.389587608     2.164992695
 C      -25.912731391    -0.142645542     1.094048463
 C      -26.963628811     1.075167986     3.675214842
 C      -26.592089859     2.835591751     1.199709467
 C      -12.442069791     2.218725079     5.368010727
 C      -13.360984650     4.797666689     6.719074703
 C       -4.127092619    13.059184673     1.748500537
 C       -2.925789910    13.633302564    -1.005779445
 C       -0.617764824    -0.875873450    -1.531008297
 C       -0.616261494    -0.875893034     1.531776825
 H        1.278704695     2.733059483    -0.020634315
 H        0.349744266     4.976243248    -0.020035470
 H       -3.642893053     3.368534786     0.020800140
 H       -2.756564902     1.103607955     0.019431481
 H       -3.400905051     5.686854853     0.011546643
 H       -0.514855826     6.809398983    -0.018463809
 H       -0.279505489     9.132393313    -0.027803451
 H       -1.175100545    11.395892215    -0.027183766
 H       -5.205550254     9.749904631    -0.000903439
 H       -4.266129857     7.508994807     0.012231774
 H       -5.568242301    11.980002722    -1.868590150
 H       -6.893901009    13.020587128     0.760369085
 H       -9.196146898    13.256294515     0.751935949
 H      -11.396814854    13.116269554    -0.354424983
 H       -9.480327782    11.617520153    -3.923940923
 H       -7.296704017    11.850739347    -2.848944375
 H      -12.981965605    12.202787679    -4.588053843
 H      -11.669130942    10.987577695    -4.533320952
 H      -11.299195084    12.727798912    -4.760639322
 H       -9.118785286     9.451266150    -2.092898674
 H       -8.719988919     8.076486226    -1.042908448
 H       -9.428005907     9.576229702    -0.344083931
 H      -13.234922961     7.252143385    -1.434955804
 H      -14.257837876     5.946444604     0.370188956
 H      -10.606443052     6.193956956     2.634468430
 H       -9.587782457     7.540344650     0.873335563
 H      -14.199928532     4.916250806     2.429224947
 H      -11.535348084     5.081579986     4.050846702
 H      -16.108446486     4.515634502     6.237010004
 H      -18.359840754     3.951308765     5.522883884
 H      -16.790134031     1.689344651     2.214877969
 H      -14.516265305     2.222854600     2.896851769
 H      -19.106058900     1.795432851     2.463167766
 H      -20.199220143     3.434902736     4.851474364
 H      -20.942392257     1.276467986     1.792031488
 H      -23.191499191     0.713225840     1.074705820
 H      -24.788071633     2.990966537     4.421470826
 H      -22.517287969     3.542204069     5.095212847
 H      -13.346741327    12.189494999    -1.283701971
 H      -13.709919779    11.159865012    -2.690613359
 H      -11.605112825    10.593521934    -0.487561482
 H      -13.158183899     9.793931153    -0.667881615
 H      -12.465817302     8.608163354    -2.686376299
 H      -11.103553541     9.708022282    -2.976939902
 H        2.266548633    -1.030822210     0.008261249
 H        2.274389701     0.516620911     0.888244540
 H        2.274504799     0.502294810    -0.896318871
 H      -26.943519040    -0.445237575     0.836716526
 H      -25.436906131    -0.995190823     1.611624436
 H      -25.370808568     0.018530038     0.145677304
 H      -26.536435867     0.269818802     4.300145741
 H      -27.052145377     1.975231912     4.308285840
 H      -27.985976892     0.768464516     3.391488392
 H      -25.986385164     3.039615088     0.298340320
 H      -27.628399835     2.645173647     0.869749945
 H      -26.598414083     3.758428785     1.807068717
 H      -12.394523812     1.634141725     4.431665066
 H      -11.404172529     2.409276698     5.693113418
 H      -12.920987638     1.581282624     6.132873350
 H      -13.876368453     5.768000831     6.599869229
 H      -13.854899885     4.250873798     7.541593771
 H      -12.325883652     5.013459577     7.039148529
 H       -4.753638007    12.381082680     2.356277090
 H       -3.135069344    13.109704429     2.232909723
 H       -4.574580172    14.067788999     1.799890035
 H       -2.753645312    13.253591672    -2.029236535
 H       -3.404494866    14.625518301    -1.097172346
 H       -1.938392760    13.783740489    -0.535239089
 H       -0.272515801    -0.367115573    -2.449443776
 H       -0.256138536    -1.918383595    -1.571752953
 H       -1.721293975    -0.903670646    -1.565072392
 H       -0.272633443    -0.364684610     2.449496957
 H       -1.719693999    -0.906485894     1.565601627
 H       -0.251997560    -1.917391504     1.573917634

