139   

Si        0.000000000     0.000000000     0.000000000
 C        1.869210855     0.000000000     0.000000000
 C       -0.627251063     1.736081513     0.000000000
 C       -0.035469511     2.697173426    -0.827933475
 C       -0.501625170     4.011046473    -0.835472229
 C       -1.573565764     4.393560735    -0.023636581
 C       -2.167356614     3.429184627     0.800600508
 C       -1.701481271     2.116472154     0.812810198
 C       -2.096060281     5.755779899     0.002618628
 C       -1.618714719     6.774434427    -0.732510785
 C       -2.144483355     8.135638993    -0.703089982
 C       -3.217077352     8.510379652     0.111756448
 C       -3.688982653     9.822114225     0.109888857
 C       -3.091452891    10.790384221    -0.704316674
 C       -2.017188336    10.419123535    -1.521425304
 C       -1.552561674     9.105917427    -1.521897912
Si       -3.720093272    12.525442146    -0.702970065
 C       -2.447332764    13.614318668    -1.443654129
 C       -2.616040501    14.369581658    -2.537093246
 C       -1.580922113    15.232175567    -3.109049317
 C       -1.878724247    15.976966986    -4.259785857
 C       -0.935666493    16.807999983    -4.840687821
 C        0.371051049    16.887288156    -4.310370185
 C        0.671201672    16.139403592    -3.156044239
 C       -0.300837811    15.345786814    -2.560425034
 N        1.313920955    17.736674518    -4.914218156
 C        1.259670750    17.859822673    -6.381085940
 C        2.689248275    17.695101314    -4.392067664
 C        1.428760160    16.516557913    -7.119794562
 C        1.972820587    16.712274509    -8.546433164
 N        3.439123903    16.551625317    -8.673650756
 C        4.190397446    17.448140892    -7.867368024
 C        4.048465716    18.827109247    -8.123201814
 C        4.754641251    19.750775968    -7.370732088
 C        5.646284531    19.336601845    -6.368647454
 C        5.801942266    17.968363802    -6.137255329
 C        5.092674482    17.029312454    -6.879115363
 C        3.856559882    15.139528140    -8.619298619
 C        6.367896241    20.355726859    -5.602205574
 C        7.241171940    20.080103833    -4.625040592
Si        8.163254373    21.324214608    -3.643761303
 C        9.968692137    21.044722201    -3.895563735
 C       10.430222328    20.344466535    -5.016572240
 C       11.794336841    20.134903945    -5.204117750
 C       12.728679702    20.625818951    -4.282781177
 C       12.263899202    21.328942268    -3.167304392
 C       10.898974122    21.537970221    -2.974575964
 C       14.147202721    20.380712806    -4.522788581
 C       15.141220307    20.793447144    -3.717933480
 C       16.559943618    20.548975925    -3.956860155
 C       17.027234340    19.846382535    -5.071157379
 C       18.392642356    19.635952927    -5.259728482
 C       19.322774155    20.117804735    -4.331899107
 C       18.856867716    20.821366178    -3.214394759
 C       17.492840212    21.036183613    -3.032097222
Si       21.130091193    19.836948335    -4.585423688
 C       21.405897986    18.191216684    -5.428302902
 C       21.793139618    21.216725105    -5.656875463
 C       22.018910260    19.831067269    -2.940746892
 C        7.748805049    23.065275578    -4.173400578
 C        7.716944549    21.079515589    -1.846312259
 C       -5.317740125    12.576612861    -1.668396054
 C       -4.016083883    13.093763327     1.052406137
 C       -0.633112281    -0.850184887    -1.539286291
 C       -0.605208584    -0.914975744     1.513894974
 H        0.804166443     2.457770145    -1.486432722
 H       -0.021519786     4.740875261    -1.484986062
 H       -3.003434577     3.705235776     1.440695999
 H       -2.204036034     1.409163545     1.478214088
 H       -2.937306579     5.908634455     0.685394773
 H       -0.778120543     6.623024764    -1.415957877
 H       -3.695254101     7.775484232     0.756669339
 H       -4.531889260    10.054922959     0.766343799
 H       -1.514714529    11.136192570    -2.179245154
 H       -0.718174379     8.834475458    -2.165922330
 H       -1.490110035    13.609432544    -0.897832572
 H       -3.559314442    14.397215535    -3.098850243
 H       -2.874009891    15.912336384    -4.700470075
 H       -1.208693764    17.399864183    -5.709488603
 H        1.661317999    16.175928405    -2.712764493
 H       -0.046260994    14.789010694    -1.656940566
 H        3.316440002    18.433602574    -4.926215115
 H        3.171322584    16.709851468    -4.493957667
 H        2.685273402    17.991636109    -3.327881416
 H        3.346722528    14.589782039    -9.430269112
 H        3.635400457    14.634736679    -7.666023307
 H        4.940597681    15.069441190    -8.817813170
 H        3.389343840    19.160006569    -8.922378576
 H        4.625263766    20.814699148    -7.571872446
 H        6.493288944    17.620567705    -5.367759526
 H        5.235246776    15.973131357    -6.669706904
 H        6.123688424    21.381247804    -5.909196639
 H        7.466010314    19.039653889    -4.338282683
 H        9.746465173    19.941247715    -5.770882102
 H       12.135090586    19.584648524    -6.079455541
 H       12.969014407    21.721003609    -2.436501227
 H       10.595529065    22.093444455    -2.082934320
 H       14.366043943    19.817581147    -5.434888217
 H       14.921963675    21.356883169    -2.806014305
 H       16.324170649    19.456777171    -5.805278295
 H       18.696903727    19.081080212    -6.151635165
 H       19.536085110    21.220576262    -2.456027259
 H       17.150729909    21.587236076    -2.157895761
 H        0.292971684    18.336768753    -6.659309407
 H        2.048983809    18.582344246    -6.694862155
 H        2.101122723    15.852942884    -6.542901340
 H        0.460408008    15.982886909    -7.147624451
 H        1.492840032    15.986339545    -9.241074511
 H        1.704630111    17.719786253    -8.935932543
 H        2.268762382    -1.028603814     0.045000096
 H        2.268847597     0.550598617     0.871110983
 H        2.278593773     0.475420539    -0.908440636
 H       22.483314571    17.968758421    -5.526973309
 H       20.970882536    18.172107604    -6.442777960
 H       20.947886262    17.365886499    -4.853494574
 H       21.284954880    21.244297690    -6.637534740
 H       21.642639507    22.202651702    -5.181235883
 H       22.874740974    21.097403559    -5.843921408
 H       21.591272575    19.074963515    -2.257646878
 H       23.090530638    19.594819130    -3.067394125
 H       21.955187158    20.811232101    -2.436647213
 H        7.998912051    23.233012385    -5.237090208
 H        6.674046260    23.283064964    -4.041147134
 H        8.314531681    23.809153720    -3.583578314
 H        8.025642640    20.081219486    -1.486618172
 H        8.204300737    21.830843656    -1.200482811
 H        6.625970235    21.165262150    -1.691039091
 H       -5.165550961    12.252166110    -2.714002525
 H       -6.076511052    11.907438048    -1.224892914
 H       -5.743325030    13.595560247    -1.690187256
 H       -3.098094571    13.011229033     1.662120852
 H       -4.337323817    14.150923582     1.079123062
 H       -4.799693474    12.494666823     1.547597293
 H       -0.290311873    -0.335012623    -2.454371253
 H       -0.284805072    -1.896467578    -1.593735125
 H       -1.737788701    -0.863896105    -1.564177731
 H       -0.308112475    -0.395408498     2.442692554
 H       -1.705073545    -1.012104322     1.520388706
 H       -0.184624748    -1.935601745     1.556816630

