139   

Si        0.000000000     0.000000000     0.000000000
 C        1.869490373     0.000000000     0.000000000
 C       -0.608332579     1.743292495     0.000000000
 C       -0.033672832     2.681946915    -0.865152819
 C       -0.481129444     4.002049178    -0.877811760
 C       -1.518186614     4.413220311    -0.035132992
 C       -2.095036713     3.471379838     0.826226353
 C       -1.646580096     2.152479988     0.844575751
 C       -2.018817226     5.783843642    -0.014277562
 C       -1.550577767     6.780832626    -0.784152233
 C       -2.051241604     8.151372751    -0.763238073
 C       -3.088635263     8.561677117     0.080043438
 C       -3.536220897     9.881139485     0.067716873
 C       -2.954382206    10.822554662    -0.791022052
 C       -1.916637039    10.414818585    -1.635632917
 C       -1.471348860     9.094349941    -1.620931925
Si       -3.573818557    12.560683884    -0.779124699
 C       -3.380252351    13.284943203     0.892907870
 C       -2.864183633    12.643773890     1.949888249
 C       -2.714089260    13.232011796     3.281626632
 C       -2.156919640    12.451295469     4.305796099
 C       -1.992500502    12.958842305     5.583715878
 C       -2.339316515    14.296769406     5.870356418
 C       -2.896447457    15.080991701     4.844625714
 C       -3.097375234    14.541711051     3.579627556
 N       -2.160437002    14.784888674     7.181341620
 C       -0.906186061    14.389638998     7.853574647
 C       -2.512549469    16.195725771     7.414934677
 C        0.355866417    14.760728211     7.053106032
 C        1.614031318    14.899823385     7.926371340
 N        1.560555492    15.934470776     8.986132310
 C        0.823252059    17.094653965     8.658478014
 C        1.163013328    17.780352014     7.472619731
 C        0.471974679    18.922205353     7.105854409
 C       -0.554676549    19.436802962     7.913030370
 C       -0.867729190    18.770879745     9.099742775
 C       -0.183392628    17.622374390     9.482454983
 C        1.352130382    15.379926113    10.333408528
 C       -1.254862720    20.647819018     7.479576286
 C       -2.247178968    21.222947238     8.170817283
Si       -3.156987670    22.734618286     7.678413029
 C       -4.933889472    22.262876429     7.516010679
 C       -5.274017101    20.944148706     7.193574176
 C       -6.610466086    20.569029722     7.066610387
 C       -7.634396220    21.502555052     7.251219515
 C       -7.290239912    22.822851511     7.570122422
 C       -5.955811809    23.200634006     7.701235075
 C       -9.046307742    21.154455320     7.128215058
 C       -9.507059785    19.928283616     6.827888896
 C      -10.918293437    19.578061091     6.704407976
 C      -11.945343938    20.507192920     6.891434565
 C      -13.281351845    20.128462162     6.763503062
 C      -13.619900420    18.811567059     6.435147454
 C      -12.592396460    17.878626258     6.245856809
 C      -11.259359056    18.257676954     6.382613444
Si      -15.386820687    18.303274933     6.264158005
 C      -16.437699470    19.774012205     5.787253519
 C      -15.545235932    16.992798191     4.940388520
 C      -15.963128852    17.620169860     7.904970560
 C       -2.934117020    24.015476644     9.018655087
 C       -2.562397752    23.407960996     6.042848096
 C       -2.624059111    13.619376474    -1.990657140
 C       -5.385795989    12.557161036    -1.234899567
 C       -0.638711961    -0.846037133    -1.538647946
 C       -0.610220058    -0.910962729     1.513713185
 H        0.777837425     2.419747186    -1.549822158
 H       -0.015322132     4.713718058    -1.557269900
 H       -2.904058189     3.769806958     1.490526246
 H       -2.134282598     1.463022583     1.539064397
 H       -2.833316463     5.962140258     0.694075147
 H       -0.736850484     6.601744905    -1.493072704
 H       -3.557303127     7.847918901     0.755213021
 H       -4.352934826    10.142700094     0.748515813
 H       -1.424867724    11.106106758    -2.325299765
 H       -0.662855337     8.796126561    -2.285666824
 H       -3.731781353    14.325104299     0.971587383
 H       -2.501008926    11.606832892     1.894208156
 H       -1.858736532    11.422834162     4.097556522
 H       -1.596135269    12.320060504     6.367872746
 H       -3.176471054    16.114717193     5.023760064
 H       -3.546032734    15.165462816     2.805453048
 H       -2.410251301    16.429842062     8.489479476
 H       -3.572699445    16.357646981     7.151057201
 H       -1.885124870    16.911448309     6.856970950
 H        2.127028733    14.617504213    10.529097612
 H        0.363733446    14.921555448    10.491996215
 H        1.498939711    16.177853303    11.084009343
 H        1.975613181    17.409128842     6.851926470
 H        0.738616300    19.433720300     6.180140791
 H       -1.657201362    19.154741574     9.748435158
 H       -0.453125866    17.133758801    10.413443128
 H       -0.885992114    21.045538950     6.525228930
 H       -2.592457856    20.800319316     9.129033096
 H       -4.514875466    20.169954425     7.036372617
 H       -6.850481746    19.536100611     6.819600355
 H       -8.073036108    23.564403194     7.718419672
 H       -5.747012518    24.243448876     7.954304120
 H       -9.738956231    21.983187337     7.301373182
 H       -8.813928206    19.099449425     6.654335704
 H      -11.708611155    21.539850993     7.141691098
 H      -14.039878755    20.899533968     6.924556861
 H      -12.796295906    16.835777584     5.987430052
 H      -10.475201400    17.517173424     6.234033723
 H       -0.890784683    14.869675850     8.857423103
 H       -0.941526593    13.293582774     8.041817030
 H        0.537049468    14.001582134     6.266786945
 H        0.176277910    15.703511285     6.496393793
 H        1.863520783    13.918309804     8.384688610
 H        2.481140154    15.165375877     7.273290905
 H        2.270138210    -1.027501567     0.058063104
 H        2.268574369     0.562034570     0.863986061
 H        2.278216848     0.464343827    -0.914453635
 H      -17.486150845    19.474593568     5.610451758
 H      -16.067014629    20.246513391     4.859557665
 H      -16.444486882    20.546231313     6.576292590
 H      -15.130180602    17.344384426     3.978294927
 H      -15.011589434    16.065948032     5.214277781
 H      -16.602990199    16.725830729     4.767504296
 H      -15.876958035    18.374968163     8.707360409
 H      -17.018791303    17.299883731     7.859508175
 H      -15.361034522    16.745654932     8.210691625
 H       -3.370398684    23.677741650     9.976210848
 H       -1.863275307    24.223293127     9.197575293
 H       -3.417390526    24.971576849     8.751554053
 H       -2.681619869    22.664546695     5.233580754
 H       -3.133896129    24.306605717     5.747911099
 H       -1.495512222    23.690989924     6.085979498
 H       -1.551695684    13.668336190    -1.727312488
 H       -2.702209216    13.227004658    -3.019821827
 H       -3.006330550    14.655870728    -2.001819366
 H       -5.981385310    11.965561176    -0.516315775
 H       -5.801658959    13.579947749    -1.248254923
 H       -5.544074689    12.118095776    -2.236378824
 H       -0.292206893    -0.334217005    -2.454268187
 H       -0.298306100    -1.895022003    -1.592602297
 H       -1.743560069    -0.851679707    -1.563642505
 H       -0.306186948    -0.396028954     2.442832748
 H       -1.711167803    -0.996762033     1.522204768
 H       -0.200097337    -1.935964419     1.554235036

