139   

Si        0.000000000     0.000000000     0.000000000
 C        1.869374938     0.000000000     0.000000000
 C       -0.648006794     1.728772866     0.000000000
 C        0.182719272     2.816575565     0.285449343
 C       -0.323118313     4.116455749     0.281163404
 C       -1.669370564     4.358388148    -0.004348057
 C       -2.501383487     3.266649390    -0.286873715
 C       -1.999336554     1.968010201    -0.283667198
 C       -2.241507678     5.700912514    -0.020076893
 C       -1.552757718     6.826911669     0.232459138
 C       -2.120635269     8.171093811     0.217840099
 C       -3.466590084     8.418554388    -0.067132788
 C       -3.966532617     9.720331114    -0.069916700
 C       -3.126437221    10.803946657     0.206117870
 C       -1.777447672    10.559877951     0.491627802
 C       -1.282840029     9.258158766     0.499938185
Si       -3.778991761    12.528428930     0.204585110
 C       -2.375992385    13.668324839    -0.102650662
 C       -1.960928494    14.638130969     0.721747361
 C       -0.832185486    15.529828717     0.437857073
 C       -0.496238309    16.509021566     1.386170304
 C        0.561654265    17.377414199     1.167364909
 C        1.303556270    17.288426340    -0.021804992
 C        0.980205393    16.313721176    -0.970952246
 C       -0.074781551    15.437446976    -0.731928933
 N        2.379727334    18.227596782    -0.161631065
 C        1.908315566    19.525959183    -0.691624703
 C        3.553455476    17.698178219    -0.878288097
 C        1.582532211    19.528941121    -2.198305909
 C        0.647777966    20.692549331    -2.580505665
 N       -0.773521099    20.319355043    -2.740595217
 C       -1.396831928    19.863326885    -1.546590777
 C       -1.482663350    20.769331633    -0.471766833
 C       -2.079237459    20.382522320     0.717685722
 C       -2.624379029    19.099025010     0.867916756
 C       -2.560513727    18.215376776    -0.212545727
 C       -1.971290960    18.591549150    -1.414244551
 C       -1.009756757    19.492873028    -3.937334877
 C       -3.244512022    18.737316100     2.145004969
 C       -3.793724621    17.541558402     2.394377213
Si       -4.582559744    17.029161647     3.966225738
 C       -6.334716200    16.593884918     3.590375750
 C       -6.957889070    17.098271519     2.444277786
 C       -8.282457836    16.771030355     2.157364275
 C       -9.011410739    15.933873761     3.006593958
 C       -8.384274918    15.430393271     4.154265865
 C       -7.061817631    15.756239492     4.444622990
 C      -10.399072833    15.564928517     2.746044456
 C      -11.112943337    15.978231055     1.685225530
 C      -12.500532139    15.610453667     1.422925104
 C      -13.232624800    14.774770745     2.270541055
 C      -14.557437535    14.449291839     1.980676246
 C      -15.182336679    14.959164030     0.838009778
 C      -14.450685439    15.797369912    -0.013231217
 C      -13.126053502    16.115438259     0.275211487
Si      -16.935671713    14.535503588     0.443623419
 C      -17.844025958    14.023456006     1.995233202
 C      -17.791776564    16.024031125    -0.295597943
 C      -16.939333684    13.126110327    -0.783020149
 C       -3.656656742    15.539066216     4.609189917
 C       -4.556191665    18.394996204     5.237103163
 C       -5.008857315    12.761683277    -1.182613949
 C       -4.617781984    12.867587266     1.835663016
 C       -0.607523357    -0.885827330    -1.530010773
 C       -0.628225861    -0.866674431     1.531508419
 H        1.244219913     2.691210190     0.516120094
 H        0.345769379     4.945824778     0.504803213
 H       -3.553408753     3.432854086    -0.511547397
 H       -2.696461668     1.156790274    -0.511149639
 H       -3.308162673     5.741313512    -0.259176598
 H       -0.485824703     6.784889098     0.471771537
 H       -4.138394309     7.591518738    -0.289274592
 H       -5.028008355     9.851779982    -0.297775799
 H       -1.075650228    11.370510073     0.715114869
 H       -0.231980646     9.086895927     0.726569522
 H       -1.876332768    13.492121011    -1.069593456
 H       -2.433961454    14.834539147     1.693430119
 H       -1.075766244    16.595435644     2.306752780
 H        0.825019187    18.133413971     1.906085743
 H        1.549961667    16.231279889    -1.891531072
 H       -0.310053619    14.677413904    -1.477271697
 H        4.382781995    18.417810618    -0.766151730
 H        3.398835356    17.509610770    -1.950424155
 H        3.868370633    16.753977090    -0.399888758
 H       -0.640588010    20.037937611    -4.823260212
 H       -2.097270005    19.353966077    -4.073116624
 H       -0.527551965    18.503242455    -3.912538191
 H       -1.084704395    21.775163016    -0.583128150
 H       -2.129707048    21.091182494     1.544135832
 H       -2.976081172    17.208258052    -0.123526982
 H       -1.931113695    17.874077586    -2.228652987
 H       -3.213925187    19.545248421     2.887118749
 H       -3.809155854    16.753065101     1.621568301
 H       -6.436077869    17.756979799     1.741034438
 H       -8.746361097    17.176063081     1.259547596
 H       -8.934701514    14.776598336     4.828118600
 H       -6.624674327    15.332854049     5.352875716
 H      -10.845676731    14.904566762     3.495132900
 H      -10.666068772    16.639122794     0.936283863
 H      -12.771211517    14.368325539     3.168874978
 H      -15.077576503    13.789772878     2.680898714
 H      -14.886336949    16.225588895    -0.920260628
 H      -12.573476732    16.766979034    -0.399479809
 H        1.006127975    19.823540133    -0.105677537
 H        2.695471237    20.278439727    -0.465645239
 H        2.515857274    19.587301719    -2.784880427
 H        1.114469092    18.563949966    -2.475959260
 H        0.707334044    21.508174265    -1.825453439
 H        0.980446613    21.148440260    -3.540694700
 H        2.267375679    -1.028958231    -0.057578512
 H        2.277794427     0.459750537     0.917236839
 H        2.271420730     0.558712793    -0.864265221
 H      -18.914808045    13.845710084     1.790032568
 H      -17.781372578    14.806144135     2.772863485
 H      -17.432069611    13.092581276     2.422801801
 H      -17.729432770    16.896634193     0.379891698
 H      -17.342991454    16.317837174    -1.260500393
 H      -18.862059286    15.820595255    -0.477145986
 H      -16.438190659    12.232263010    -0.369622256
 H      -17.968176585    12.834881217    -1.058386091
 H      -16.408820724    13.399573558    -1.712703841
 H       -3.717782141    14.687753980     3.906305036
 H       -2.586414433    15.769239358     4.761664526
 H       -4.062145167    15.198254019     5.577691040
 H       -5.091581482    19.291895893     4.875346226
 H       -5.046275313    18.080137697     6.175746155
 H       -3.523768440    18.697958103     5.486245866
 H       -4.571714234    12.494951671    -2.161048690
 H       -5.906590055    12.135249729    -1.037816265
 H       -5.346335761    13.812933192    -1.244041244
 H       -3.911721571    12.793969977     2.681921220
 H       -5.072638762    13.875754394     1.852611984
 H       -5.430643355    12.142750308     2.025401374
 H       -0.286728182    -0.361216544    -2.448441126
 H       -0.212720703    -1.915939499    -1.580195492
 H       -1.709360438    -0.950947928    -1.554205897
 H       -0.281221522    -0.359297108     2.449955466
 H       -1.732337410    -0.882272668     1.561959395
 H       -0.277517411    -1.912701836     1.575203853

