139   

Si        0.000000000     0.000000000     0.000000000
 C        1.869497909     0.000000000     0.000000000
 C       -0.632707299     1.734681838     0.000000000
 C        0.091482210     2.755855490    -0.624902652
 C       -0.385205241     4.066207548    -0.625614902
 C       -1.598266179     4.385304104    -0.008966407
 C       -2.324618987     3.360836993     0.612024505
 C       -1.849832186     2.051486290     0.615990483
 C       -2.136154258     5.741619863     0.015306928
 C       -1.540528907     6.811322253    -0.539001528
 C       -2.081053245     8.166682273    -0.513049828
 C       -1.356600562     9.194656804    -1.131238578
 C       -1.833554546    10.503463905    -1.131484092
 C       -3.052283497    10.811959170    -0.516572539
 C       -3.778233228     9.787724172     0.101484110
 C       -3.295056141     8.480193279     0.104728361
Si       -3.705672751    12.537982096    -0.503336310
 C       -5.520239884    12.409648658    -0.279618468
 C       -6.224905717    12.930790598     0.732515725
 C       -7.678190409    12.798361350     0.863648659
 C       -8.315574441    13.386027221     1.967577039
 C       -9.687235770    13.287112538     2.133601549
 C      -10.460678676    12.564283161     1.204297898
 C       -9.830128799    11.980742044     0.097182157
 C       -8.456694275    12.117946066    -0.075253485
 N      -11.864511591    12.501423303     1.433063803
 C      -12.218644068    11.749202328     2.660404460
 C      -12.675881465    12.091095771     0.272731961
 C      -11.646935837    10.320234735     2.721501078
 C      -10.376612538    10.247874824     3.594394296
 N       -9.463058975     9.151304731     3.227451045
 C      -10.001285671     7.853222006     3.212253731
 C      -10.947740010     7.482436684     4.192734996
 C      -11.490611404     6.208652691     4.196109085
 C      -11.082577814     5.242381676     3.264701068
 C      -10.123340633     5.602386071     2.314574799
 C       -9.581732748     6.881036916     2.284625793
 C       -8.538484575     9.507272131     2.139706673
 C      -11.689547608     3.911224538     3.313392517
 C      -11.378902227     2.911978539     2.477006521
Si      -12.115274343     1.235473748     2.506357030
 C      -12.938321940     0.923005943     0.884439383
 C      -13.212420489     1.975858520     0.005887912
 C      -13.834654971     1.732691329    -1.218273231
 C      -14.202067673     0.435919178    -1.587193206
 C      -13.930172173    -0.616804007    -0.702750642
 C      -13.306746095    -0.377929005     0.519204952
 C      -14.854818132     0.133418519    -2.856840837
 C      -15.171092851     1.045791252    -3.791469050
 C      -15.823876867     0.741884666    -5.060762517
 C      -16.188450791    -0.556057672    -5.429303755
 C      -16.810797331    -0.801611419    -6.652742175
 C      -17.090416744     0.248806589    -7.533395492
 C      -16.726450367     1.550468057    -7.166238843
 C      -16.098172904     1.791864207    -5.946979145
Si      -17.914351914    -0.074020745    -9.153772377
 C      -19.019248555    -1.576535854    -9.023449399
 C      -18.953747137     1.399503539    -9.647538565
 C      -16.589728070    -0.372892624   -10.437321584
 C      -10.735607798     0.001664709     2.764088182
 C      -13.387782316     1.064455526     3.862136245
 C       -2.894753143    13.483160105     0.885633003
 C       -3.373483671    13.380320362    -2.135675888
 C       -0.632997265    -0.855132948    -1.535955356
 C       -0.605012137    -0.902745180     1.521169509
 H        1.046075662     2.568311760    -1.124322845
 H        0.199414479     4.842954195    -1.115401133
 H       -3.272018259     3.587304981     1.098376525
 H       -2.460059202     1.295166819     1.117494165
 H       -3.094534087     5.843674956     0.533658256
 H       -0.582504888     6.710328826    -1.057112673
 H       -0.408912154     8.970908806    -1.617584170
 H       -1.225440683    11.264092645    -1.628266506
 H       -4.736497065     9.972555864     0.599060506
 H       -3.876609050     7.700662850     0.594655601
 H       -6.016471679    11.844186005    -1.086454542
 H       -5.763539825    13.501626004     1.548391058
 H       -7.726386294    13.937821475     2.700524965
 H      -10.176961750    13.776769414     2.973121778
 H      -10.403140361    11.419951080    -0.635817254
 H       -7.987690716    11.671856373    -0.953951110
 H      -13.738414445    12.287451276     0.501672458
 H      -12.571641408    11.031198125    -0.006323037
 H      -12.414638820    12.717507610    -0.598134068
 H       -8.137730925    10.524749064     2.307325620
 H       -9.003764985     9.491966510     1.140721041
 H       -7.674419878     8.819032216     2.151671527
 H      -11.257030833     8.198070925     4.949022038
 H      -12.237110737     5.950533668     4.947815106
 H       -9.788097209     4.870622279     1.577581057
 H       -8.843496002     7.119517472     1.525209926
 H      -12.437312320     3.806458481     4.110775687
 H      -10.620525964     3.045956688     1.688657718
 H      -12.950979608     3.012555680     0.243511074
 H      -14.034278679     2.568153910    -1.886910514
 H      -14.208393640    -1.633987805    -0.971522986
 H      -13.118878290    -1.238020853     1.167557102
 H      -15.082778407    -0.925233514    -3.012529746
 H      -14.943262885     2.104518921    -3.636144384
 H      -15.987082938    -1.390766375    -4.760101763
 H      -17.069924524    -1.838261321    -6.885243629
 H      -16.919714463     2.410597954    -7.813126047
 H      -15.820802082     2.810271329    -5.680894684
 H      -11.875608505    12.350275572     3.532274926
 H      -13.328608505    11.721561492     2.734917855
 H      -12.406739776     9.617145333     3.109697372
 H      -11.420607118     9.955819431     1.700725201
 H       -9.808220684    11.205313224     3.535960363
 H      -10.651457695    10.127822680     4.666844064
 H        2.268393543    -1.027194659     0.076416868
 H        2.269385831     0.575695928     0.854439950
 H        2.279576053     0.445089264    -0.923312126
 H      -19.577700047    -1.743600705    -9.961651432
 H      -19.760759417    -1.458335917    -8.212597439
 H      -18.441260396    -2.494037183    -8.816195991
 H      -19.692797419     1.647759420    -8.864302120
 H      -18.335751834     2.297898645    -9.819970749
 H      -19.512350248     1.199657913   -10.579195643
 H      -15.962192711    -1.242863017   -10.172308122
 H      -17.028707559    -0.567716300   -11.431464544
 H      -15.918243991     0.499317651   -10.533059010
 H      -10.007835527     0.033450852     1.933099383
 H      -10.182560398     0.212435297     3.697397022
 H      -11.120143816    -1.030785662     2.829975880
 H      -14.215631682     1.784724136     3.728941106
 H      -13.831660731     0.053048452     3.871439544
 H      -12.942880200     1.242879053     4.857250418
 H       -3.080972396    13.001741228     1.863243182
 H       -1.799130210    13.533998506     0.750075899
 H       -3.271394566    14.519951393     0.943402996
 H       -3.773694605    12.793193625    -2.982165148
 H       -3.845877646    14.379004373    -2.172945190
 H       -2.291698628    13.518470466    -2.308823974
 H       -0.288669183    -0.343251260    -2.452564335
 H       -0.285063968    -1.901789556    -1.586694140
 H       -1.737583780    -0.868242263    -1.562569484
 H       -0.311381224    -0.371423131     2.444687892
 H       -1.704513391    -1.002575789     1.528665527
 H       -0.181275239    -1.921370953     1.575726181

