139   

Si        0.000000000     0.000000000     0.000000000
 C        1.869620325     0.000000000     0.000000000
 C       -0.631767972     1.734807834     0.000000000
 C        0.100388774     2.760133977     0.608469302
 C       -0.377257354     4.070168024     0.608156269
 C       -1.599869233     4.384841676     0.008233609
 C       -2.334164668     3.356017956    -0.595952708
 C       -1.858067999     2.047151667    -0.599907208
 C       -2.139004880     5.740734862    -0.016329989
 C       -1.534631673     6.813385996     0.522397192
 C       -2.071926748     8.169934198     0.498959299
 C       -3.294062613     8.486211684    -0.100389398
 C       -3.770388453     9.797421225    -0.099755802
 C       -3.027499162    10.820750638     0.494602589
 C       -1.800677576    10.508065479     1.096079427
 C       -1.331991769     9.197540752     1.099822917
Si       -3.623440210    12.568292702     0.516168302
 C       -2.137815525    13.618432618     0.295318230
 C       -1.697640923    14.539860151     1.160825176
 C       -0.501611804    15.358804546     0.942617497
 C       -0.138806324    16.294019372     1.924082814
 C        0.982348471    17.092725443     1.766868890
 C        1.787291809    16.950472160     0.624097369
 C        1.436656696    16.018978661    -0.358437018
 C        0.294254402    15.239779418    -0.198474455
 N        2.926707254    17.816037669     0.541815260
 C        4.034237331    17.338331395     1.399656351
 C        3.359978865    18.133324922    -0.830473713
 C        4.723501374    16.052886416     0.898429823
 C        5.375958803    15.257863313     2.045830473
 N        4.600728842    14.086434336     2.500245411
 C        3.384237989    14.353347505     3.166006891
 C        3.366527949    15.327121006     4.186513921
 C        2.189807019    15.613124196     4.859499910
 C        1.013125260    14.897421007     4.597113454
 C        1.044491966    13.904311192     3.613999876
 C        2.208739322    13.626405112     2.909077407
 C        4.574324434    13.006369661     1.498624722
 C       -0.204298502    15.238573072     5.335636565
 C       -1.379745114    14.620227158     5.163732899
Si       -2.934048039    15.001808665     6.056218729
 C       -4.145191413    15.483258371     4.746832046
 C       -3.718658920    16.296862721     3.688322747
 C       -4.607301207    16.676393902     2.686975323
 C       -5.944813328    16.258926109     2.721468102
 C       -6.368312618    15.452068006     3.781172327
 C       -5.479045460    15.068648995     4.785733051
 C       -6.837079818    16.683367863     1.648423621
 C       -8.136863658    16.354720289     1.558805283
 C       -9.027374344    16.780700627     0.484178535
 C       -8.599268849    17.587727837    -0.573658931
 C       -9.484243558    17.971733847    -1.580410765
 C      -10.817825827    17.549569201    -1.555952606
 C      -11.248847759    16.739992081    -0.497536287
 C      -10.364536373    16.363634006     0.510488950
Si      -11.991422933    18.056929669    -2.888141141
 C      -11.065276274    18.327820163    -4.489378028
 C      -13.275349280    16.723671696    -3.150929539
 C      -12.825372648    19.644621186    -2.363912695
 C       -3.491663430    13.463781817     6.953676600
 C       -2.736129199    16.417285327     7.253871291
 C       -4.819349982    12.925127555    -0.869252352
 C       -4.449596206    12.861573003     2.159355003
 C       -0.604431924    -0.902533115    -1.521650810
 C       -0.632988879    -0.855535918     1.535890857
 H        1.062227579     2.576303929     1.095308946
 H        0.214021393     4.850338535     1.084380185
 H       -3.288907149     3.578805028    -1.068964003
 H       -2.474569113     1.287656979    -1.088396818
 H       -3.105172642     5.839990389    -0.519626429
 H       -0.568594999     6.713438937     1.026305310
 H       -3.887677876     7.706600963    -0.574000724
 H       -4.733600205     9.984838475    -0.581914966
 H       -1.176543567    11.271973741     1.572807695
 H       -0.378401902     8.971132108     1.573406153
 H       -1.605597307    13.426353521    -0.650747276
 H       -2.209140533    14.758564926     2.109153099
 H       -0.741056030    16.393304564     2.829332844
 H        1.251770741    17.827679010     2.523746043
 H        2.046603389    15.898768883    -1.248312892
 H        0.031667412    14.522154019    -0.976197518
 H        4.107978383    18.943472372    -0.780605076
 H        2.495677004    18.518354098    -1.399827083
 H        3.797380522    17.290642502    -1.385444368
 H        5.593450876    12.839457729     1.111097276
 H        3.906158960    13.202593405     0.644397634
 H        4.259782441    12.067018059     1.989201530
 H        4.277809197    15.859030745     4.445727077
 H        2.189002917    16.393612829     5.620736447
 H        0.139848283    13.338159280     3.379653603
 H        2.181681121    12.862154345     2.138044251
 H       -0.062086265    16.057445031     6.052551629
 H       -1.487100629    13.794985449     4.438931167
 H       -2.687786722    16.660413647     3.614431870
 H       -4.256026948    17.302233737     1.867270397
 H       -7.402270835    15.116314288     3.832292116
 H       -5.867336299    14.436675542     5.588588632
 H       -6.367521405    17.311770122     0.885220919
 H       -8.607250085    15.726033864     2.320532935
 H       -7.565343937    17.926179054    -0.619177977
 H       -9.090869561    18.605111967    -2.380570996
 H      -12.278628518    16.379242421    -0.425661442
 H      -10.719463102    15.735650099     1.325662402
 H        4.772010928    18.165386743     1.485291628
 H        3.618344296    17.176911894     2.422333686
 H        3.981877442    15.415594635     0.376666851
 H        5.481094266    16.306517808     0.136724017
 H        6.378014433    14.887313317     1.727861438
 H        5.571866268    15.916075277     2.921215282
 H        2.268754534    -1.027576594    -0.069153207
 H        2.279614474     0.451716305     0.920201692
 H        2.269172852     0.569713106    -0.858532196
 H      -11.758677551    18.560876362    -5.317035177
 H      -10.494690495    17.426698670    -4.778671915
 H      -10.350214788    19.165597730    -4.412969070
 H      -12.801662475    15.753838593    -3.388173433
 H      -13.904469390    16.577580523    -2.255613011
 H      -13.948556644    16.977617754    -3.989036482
 H      -12.087617837    20.450015246    -2.196447176
 H      -13.537403386    19.997580766    -3.130443015
 H      -13.386807446    19.512185277    -1.421583863
 H       -3.676380618    12.628849155     6.253250406
 H       -2.724494768    13.123897011     7.673762597
 H       -4.421815122    13.637954814     7.522135603
 H       -2.404109790    17.339121896     6.742711234
 H       -3.690612106    16.650187891     7.759878709
 H       -1.994985264    16.182140248     8.038490329
 H       -4.377530863    12.710474425    -1.858081853
 H       -5.741607893    12.324967184    -0.774887356
 H       -5.120983349    13.989880985    -0.863721061
 H       -3.774520871    12.629798772     3.002813095
 H       -4.766440492    13.917927992     2.269486926
 H       -5.351346477    12.235126888     2.275986391
 H       -0.306277774    -0.373510500    -2.444935125
 H       -0.184345877    -1.922762201    -1.573626092
 H       -1.704224406    -0.998095365    -1.531927869
 H       -0.288121150    -0.343470457     2.452259732
 H       -1.737493172    -0.868031477     1.562798171
 H       -0.285428968    -1.902266142     1.586353838

