139   

Si        0.000000000     0.000000000     0.000000000
 C        1.869394929     0.000000000     0.000000000
 C       -0.623054351     1.737812458     0.000000000
 C        0.000959770     2.707896307    -0.792940914
 C       -0.461510968     4.023039717    -0.800321017
 C       -1.561647439     4.398179421    -0.023492508
 C       -2.187646821     3.424816253     0.765625202
 C       -1.725667648     2.110669564     0.777664319
 C       -2.080528864     5.761907615     0.000492455
 C       -1.571880164     6.786788810    -0.704410137
 C       -2.091277550     8.150437014    -0.679987004
 C       -3.191678603     8.523529776     0.097644936
 C       -3.655476104     9.838280671     0.091445462
 C       -3.022164378    10.810863997    -0.689853228
 C       -1.919988227    10.441089956    -1.469731550
 C       -1.463251489     9.125219048    -1.466032623
Si       -3.637440728    12.550941701    -0.696913849
 C       -2.320393975    13.632263292    -1.367670255
 C       -2.427657652    14.400923250    -2.459616038
 C       -1.355414404    15.255660549    -2.971441578
 C       -1.586604027    16.017001411    -4.126646409
 C       -0.605682546    16.841271218    -4.651530846
 C        0.674580958    16.897856183    -4.055452127
 C        0.908136727    16.132736852    -2.895906467
 C       -0.101952639    15.345327117    -2.359669866
 N        1.653279478    17.737498159    -4.600817514
 C        1.691431755    17.894094858    -6.063514616
 C        2.967406439    17.769471209    -3.947165346
 C        1.712952030    16.582420730    -6.870040644
 C        3.078774896    15.873937322    -6.899949302
 N        4.155908510    16.561328464    -7.639425647
 C        4.877843035    17.528672643    -6.896595381
 C        5.590510634    17.076917078    -5.767090566
 C        6.316371917    17.971618312    -4.998277102
 C        6.386082008    19.330218783    -5.343638507
 C        5.702393038    19.766176183    -6.481072909
 C        4.966007899    18.880611179    -7.260599178
 C        3.781144490    16.944236768    -9.008918382
 C        7.167985021    20.233809071    -4.495642129
 C        7.306031733    21.545819245    -4.725532577
Si        8.273168236    22.711323493    -3.692406945
 C        9.590856179    23.457674037    -4.745485123
 C       10.018641524    22.810354089    -5.909232743
 C       11.014656248    23.373108618    -6.706525012
 C       11.609968541    24.587725016    -6.354726750
 C       11.182612334    25.231244300    -5.185426491
 C       10.185523850    24.674070439    -4.388711949
 C       12.655244366    25.213263269    -7.158487600
 C       13.152522393    24.701670207    -8.297340242
 C       14.197658348    25.325892408    -9.102145608
 C       14.792050566    26.542126202    -8.754734914
 C       15.788089774    27.102639257    -9.553878843
 C       16.218614358    26.453517243   -10.715719520
 C       15.624977045    25.234009145   -11.065532809
 C       14.625153456    24.680281211   -10.269937930
Si       17.536852512    27.189071286   -11.779116859
 C       18.635520147    28.309888128   -10.763372339
 C       18.582556197    25.829756058   -12.523320538
 C       16.714085979    28.172828000   -13.137933525
 C        7.108610454    24.035633729    -3.076761759
 C        9.080851422    21.848002251    -2.248047084
 C       -5.188878502    12.627467004    -1.733189381
 C       -4.007813750    13.102851937     1.049487561
 C       -0.634315503    -0.849986254    -1.538619194
 C       -0.606620585    -0.911297882     1.515391218
 H        0.863678428     2.475042796    -1.423383150
 H        0.044153084     4.759783415    -1.422097753
 H       -3.046027167     3.694920939     1.378117203
 H       -2.253811658     1.396049833     1.414805842
 H       -2.945868463     5.910141943     0.653329783
 H       -0.706987790     6.638662028    -1.357811383
 H       -3.698065934     7.785094015     0.716422364
 H       -4.521082870    10.069888514     0.718055645
 H       -1.388899958    11.161406743    -2.101009373
 H       -0.606755884     8.855082613    -2.080943564
 H       -1.390050427    13.609863733    -0.777467126
 H       -3.342833170    14.446740739    -3.064860620
 H       -2.560352569    15.971454475    -4.615461508
 H       -0.827234889    17.449232383    -5.523530777
 H        1.876325177    16.149049845    -2.406267770
 H        0.100365838    14.773827107    -1.452092161
 H        3.609926831    18.530901416    -4.427805453
 H        3.502132638    16.806318961    -3.978798761
 H        2.843570507    18.079145921    -2.893108759
 H        3.382794654    16.056278587    -9.530641324
 H        4.687288382    17.262065409    -9.555673763
 H        3.032882444    17.749762783    -9.069953181
 H        5.576045516    16.019009411    -5.511773273
 H        6.855775209    17.608884306    -4.122629764
 H        5.744644912    20.816904682    -6.772849392
 H        4.449358474    19.251911713    -8.140676444
 H        7.639256293    19.727326615    -3.643036645
 H        6.819856948    22.026613153    -5.590375369
 H        9.591745212    21.855217991    -6.233099296
 H       11.327436967    22.852706771    -7.610196285
 H       11.633502311    26.178036810    -4.893917553
 H        9.891363329    25.222199978    -3.489579855
 H       13.027972687    26.163527384    -6.764931935
 H       12.779852990    23.750881780    -8.690271441
 H       14.479065766    27.065078757    -7.852726128
 H       16.213323178    28.057028584    -9.230950322
 H       15.920597355    24.681160720   -11.961530794
 H       14.174583655    23.732736870   -10.559887720
 H        0.794210269    18.492032757    -6.355252168
 H        2.569496164    18.524473978    -6.334166961
 H        0.963106270    15.876922297    -6.452980708
 H        1.370419067    16.788095517    -7.901391987
 H        3.419182215    15.676722297    -5.858979383
 H        2.958479655    14.871996054    -7.378739513
 H        2.269097819    -1.027912672     0.058271590
 H        2.268834692     0.561586271     0.864126111
 H        2.278948219     0.463275146    -0.914574926
 H       19.473504941    28.701183120   -11.367462146
 H       19.070900815    27.770456264    -9.902724432
 H       18.080969730    29.178794596   -10.367874373
 H       19.015554907    25.183708975   -11.738063182
 H       17.995424639    25.183892244   -13.199169301
 H       19.420577953    26.246213187   -13.110096428
 H       16.085650848    28.982059961   -12.724182232
 H       17.459414776    28.637368246   -13.807142835
 H       16.060072496    27.533800209   -13.757981775
 H        6.681986842    24.617764890    -3.913750125
 H        6.264337805    23.594815073    -2.515924623
 H        7.619489196    24.746135760    -2.403543071
 H        9.770939103    21.054185131    -2.588256763
 H        9.671625956    22.554844762    -1.637622594
 H        8.330826453    21.381599248    -1.584977872
 H       -4.992719706    12.310587648    -2.773773349
 H       -5.973975395    11.962662581    -1.330816678
 H       -5.602465056    13.651114942    -1.764819684
 H       -3.122271217    12.994959561     1.701713573
 H       -4.310448485    14.165503383     1.075081606
 H       -4.825597539    12.512596865     1.497891196
 H       -0.289010164    -0.336847809    -2.453984158
 H       -0.288899495    -1.897333332    -1.591640868
 H       -1.738969192    -0.860560442    -1.564800573
 H       -0.312295574    -0.387764637     2.442921764
 H       -1.706336405    -1.009994690     1.520402946
 H       -0.184587958    -1.931083351     1.562793042

