139   

Si        0.000000000     0.000000000     0.000000000
 C        1.869148837     0.000000000     0.000000000
 C       -0.656206789     1.725402027     0.000000000
 C        0.182739378     2.828391399    -0.183542766
 C       -0.335985870     4.123433206    -0.179722443
 C       -1.702944507     4.344810457     0.005763302
 C       -2.543051355     3.237650760     0.187207309
 C       -2.028558349     1.944202148     0.183047504
 C       -2.290714188     5.680406065     0.017337930
 C       -1.600508218     6.822031677    -0.145213262
 C       -2.190606704     8.156799646    -0.133256410
 C       -1.352988112     9.265630619    -0.315319981
 C       -1.870785347    10.558274809    -0.311502054
 C       -3.243109361    10.771460220    -0.130918744
 C       -4.081322054     9.666903453     0.051151725
 C       -3.558501489     8.374073835     0.052778543
Si       -3.930738499    12.483990232    -0.125631698
 C       -5.741332676    12.383922275    -0.384985568
 C       -6.674032923    12.829938195     0.466779941
 C       -8.115509289    12.735125435     0.230306082
 C       -8.997152732    13.238759567     1.197902913
 C      -10.369338408    13.173874668     1.023039035
 C      -10.915752839    12.549887329    -0.120498122
 C      -10.031335345    12.042497969    -1.091980312
 C       -8.657722976    12.157691567    -0.920745033
 N      -12.307395935    12.490770569    -0.285833699
 C      -13.141903724    12.410205698     0.925453726
 C      -12.819925884    11.718718741    -1.426508718
 C      -12.825924626    11.231966595     1.862220174
 C      -13.437381152     9.892932512     1.416125581
 N      -14.873361316     9.726435258     1.703732415
 C      -15.296661802     9.924659537     3.028229579
 C      -14.451875163     9.542029737     4.093674442
 C      -14.850967974     9.729141714     5.406406565
 C      -16.114582546    10.255632824     5.713646561
 C      -16.960407543    10.604850451     4.658279544
 C      -16.570366522    10.439221113     3.334965848
 C      -15.763247346    10.201061126     0.634580495
 C      -16.483360225    10.431824651     7.118863895
 C      -17.657591015    10.923338665     7.536579945
Si      -18.128803689    11.147791992     9.292483901
 C      -16.748139944    10.597007824    10.385407438
 C      -16.364199242     9.250035048    10.379710000
 C      -15.324840953     8.806374611    11.194928872
 C      -14.641140998     9.696702604    12.028967496
 C      -15.024660410    11.043564481    12.030104392
 C      -16.065492787    11.489935180    11.218081823
 C      -13.547244254     9.276232344    12.898669050
 C      -13.085084238     8.017660132    12.990296507
 C      -11.991561764     7.594562232    13.858993314
 C      -11.307314008     8.479659723    14.695957989
 C      -10.267242418     8.031054169    15.510407712
 C       -9.891647134     6.684544294    15.507783726
 C      -10.576587658     5.794277341    14.669518560
 C      -11.611743396     6.245334526    13.855319927
Si       -8.519456801     6.061746912    16.574554445
 C       -7.960357997     7.382732927    17.772959551
 C       -9.122862523     4.577839141    17.537906989
 C       -7.090162138     5.572749000    15.474652265
 C      -18.522844890    12.953007996     9.571079341
 C      -19.642347732    10.114590142     9.657266110
 C       -3.509303031    13.289644492     1.505070251
 C       -3.199058159    13.469560467    -1.534452201
 C       -0.623823800    -0.871460216    -1.530834877
 C       -0.609097393    -0.882238157     1.531466422
 H        1.260387214     2.718751235    -0.332665004
 H        0.339264946     4.965149214    -0.323406856
 H       -3.611264400     3.388101661     0.333015036
 H       -2.732781291     1.120261978     0.328642109
 H       -3.373533061     5.701827578     0.173023323
 H       -0.517915983     6.801638634    -0.300742955
 H       -0.284648936     9.117656095    -0.460750340
 H       -1.169515350    11.384439803    -0.456636913
 H       -5.161003700     9.775947208     0.199313480
 H       -4.230851587     7.530669862     0.199776087
 H       -6.022962301    11.913258018    -1.340764576
 H       -6.423762981    13.306016421     1.424341286
 H       -8.597964183    13.702516170     2.101089436
 H      -11.022454828    13.606891984     1.775636180
 H      -10.406142597    11.562477363    -1.989550295
 H       -7.995734568    11.771242052    -1.697821006
 H      -13.921841903    11.751035753    -1.443295725
 H      -12.499627441    10.663743156    -1.425710043
 H      -12.473887716    12.191753147    -2.365397733
 H      -15.329847006     9.964056387    -0.351183067
 H      -15.971461445    11.282740317     0.676669665
 H      -16.723651757     9.654756801     0.697968000
 H      -13.481053319     9.099083478     3.889012659
 H      -14.173853977     9.447587360     6.214828098
 H      -17.949045964    11.015522227     4.868481147
 H      -17.259717103    10.726300634     2.548420042
 H      -15.690406614    10.119714376     7.814909897
 H      -18.435080808    11.231717691     6.821336286
 H      -16.860354096     8.507217710     9.746910764
 H      -15.047423527     7.753890833    11.175890785
 H      -14.505574035    11.753399966    12.671459229
 H      -16.319670374    12.552464126    11.260850257
 H      -13.105106569    10.077417391    13.498077456
 H      -13.528083626     7.216850353    12.390641239
 H      -11.581706028     9.532850890    14.718719021
 H       -9.768918405     8.771057463    16.142745840
 H      -10.326557157     4.730454370    14.625466943
 H      -12.131480023     5.539257285    13.210233300
 H      -13.016655514    13.371605036     1.480977713
 H      -14.211287702    12.388742473     0.621417418
 H      -11.726592461    11.113543308     1.956077219
 H      -13.176468880    11.479948764     2.885691122
 H      -13.269052485     9.733959486     0.328728911
 H      -12.900165567     9.053521576     1.921742344
 H        2.266871782    -1.029422154     0.051629632
 H        2.272592355     0.553688703     0.866770707
 H        2.276312176     0.464665112    -0.915443316
 H       -7.172309780     7.001158598    18.446753786
 H       -8.795420727     7.732118571    18.406349906
 H       -7.546437883     8.261108994    17.246791729
 H       -9.999262405     4.835295507    18.160230914
 H       -9.424108958     3.752738341    16.868939071
 H       -8.338458319     4.190391524    18.211750038
 H       -6.719296482     6.436052887    14.892690819
 H       -6.243614849     5.180000856    16.064849078
 H       -7.384967804     4.791399658    14.751802228
 H      -17.660293646    13.597158050     9.321177464
 H      -19.369694050    13.279880750     8.941613772
 H      -18.797248698    13.148381385    10.622852857
 H      -19.457070145     9.042913073     9.462116864
 H      -19.944377909    10.211145500    10.715810545
 H      -20.501218189    10.421369117     9.034990424
 H       -3.931358471    12.721848953     2.354466053
 H       -2.416313561    13.341709700     1.656818151
 H       -3.903177898    14.320109504     1.559530355
 H       -3.375146198    12.973729776    -2.506197674
 H       -3.649071286    14.477426942    -1.590682760
 H       -2.108829612    13.597362672    -1.418763019
 H       -0.279106737    -0.363185999    -2.449641905
 H       -0.267220888    -1.915556964    -1.573416486
 H       -1.727698361    -0.893393471    -1.561756134
 H       -0.273051565    -0.365999365     2.449241208
 H       -1.711742719    -0.928761680     1.563952563
 H       -0.230677194    -1.918699677     1.575046414

