139   

Si        0.000000000     0.000000000     0.000000000
 C        1.869541355     0.000000000     0.000000000
 C       -0.646815231     1.729689822     0.000000000
 C        0.204161705     2.836899508    -0.069053501
 C       -0.313526148     4.132617322    -0.067243620
 C       -1.692973380     4.350116726    -0.031498898
 C       -2.545173893     3.238689935     0.030240218
 C       -2.030697927     1.945244359     0.055500197
 C       -2.284111452     5.683609023    -0.028036113
 C       -1.590776482     6.834310047    -0.058045663
 C       -2.198230467     8.161663875    -0.054076832
 C       -1.367098528     9.288035638    -0.087632149
 C       -1.905935188    10.573075439    -0.085140316
 C       -3.291817380    10.762162698    -0.052241287
 C       -4.124724055     9.637577816    -0.026881092
 C       -3.582992469     8.353461063    -0.034279471
Si       -4.033747072    12.450094088    -0.048117805
 C       -4.631233983    12.880567006    -1.726353947
 C       -5.905934899    13.171939654    -2.016160527
 C       -6.400650486    13.517887963    -3.350726779
 C       -7.767357431    13.799638479    -3.500582682
 C       -8.295733981    14.133045796    -4.736606139
 C       -7.449271120    14.264177669    -5.854851390
 C       -6.080772772    13.998658799    -5.707646041
 C       -5.572239324    13.611397364    -4.471364341
 N       -8.058957769    14.608470417    -7.092822299
 C       -8.740163108    15.920151140    -7.091685416
 C       -7.232047054    14.400635805    -8.293655276
 C       -7.782822481    17.127202446    -7.110988760
 C       -8.294049183    18.309992253    -6.268026114
 N       -7.978482681    18.242268515    -4.825707685
 C       -6.640831284    17.926853345    -4.504181371
 C       -5.603780087    18.541552381    -5.237813174
 C       -4.279661946    18.255730346    -4.949741901
 C       -3.936904762    17.396161085    -3.896750277
 C       -4.965427714    16.813978888    -3.151138974
 C       -6.298818300    17.075409807    -3.439783547
 C       -9.020375062    17.582674697    -4.022968554
 C       -2.521296040    17.129532938    -3.637276955
 C       -2.081326925    16.326936793    -2.660229777
Si       -0.326441245    15.956416809    -2.288763030
 C       -0.158859703    14.126058539    -2.483702815
 C       -1.197891265    13.400276074    -3.076965312
 C       -1.098040018    12.020317055    -3.236301191
 C        0.039571163    11.332491776    -2.803956399
 C        1.080157752    12.061084837    -2.212916950
 C        0.985693949    13.442864923    -2.058015287
 C        0.175057653     9.887399729    -2.956265711
 C       -0.765276533     9.102383119    -3.509213578
 C       -0.662450695     7.657842624    -3.676587052
 C        0.453793368     6.924642447    -3.268088856
 C        0.502127011     5.542373182    -3.451462172
 C       -0.565273305     4.867122118    -4.049933567
 C       -1.689687560     5.599921207    -4.453600152
 C       -1.739520118     6.977004861    -4.260344977
Si       -0.538712285     3.040699030    -4.309628565
 C       -0.583390463     2.707683835    -6.150611040
 C        1.022196519     2.299449507    -3.598586160
 C       -2.040762603     2.287466025    -3.500717044
 C        0.842693304    16.818598698    -3.457851318
 C        0.033080377    16.448990428    -0.523966902
 C       -5.429792709    12.501561631     1.195750043
 C       -2.742998469    13.707301588     0.445547736
 C       -0.624797783    -0.884162217    -1.523252289
 C       -0.615213479    -0.869261094     1.536090689
 H        1.291400352     2.730326851    -0.110403884
 H        0.370161108     4.978766218    -0.111769245
 H       -3.623013907     3.386564642     0.064341548
 H       -2.744521201     1.119347769     0.117315784
 H       -3.377872126     5.695947605    -0.001412568
 H       -0.497828211     6.828798393    -0.096551428
 H       -0.286327694     9.163122042    -0.120709515
 H       -1.203831473    11.412316349    -0.121993362
 H       -5.214852684     9.722078842    -0.009517519
 H       -4.252407423     7.495560091    -0.023178848
 H       -3.851688131    12.874703086    -2.504336209
 H       -6.699294784    13.175157568    -1.256245149
 H       -8.431099402    13.728980549    -2.638952042
 H       -9.366710168    14.282476355    -4.852945599
 H       -5.402134717    14.102561172    -6.549417397
 H       -4.505457216    13.399372300    -4.381578072
 H       -7.865795414    14.532875836    -9.187569337
 H       -6.866668458    13.358070188    -8.305849250
 H       -6.369214872    15.079773358    -8.376287963
 H      -10.014356151    17.945822015    -4.331230719
 H       -8.889406396    17.869665545    -2.962851266
 H       -9.007820727    16.481909955    -4.092473600
 H       -5.842006729    19.240000467    -6.034743451
 H       -3.493737657    18.721805746    -5.544465819
 H       -4.729592275    16.130342342    -2.331856583
 H       -7.066843500    16.582572013    -2.850421610
 H       -1.846967062    17.652404215    -4.327423582
 H       -2.788353631    15.822450455    -1.978963058
 H       -2.109163692    13.885327797    -3.446337131
 H       -1.922017310    11.477627526    -3.698788395
 H        1.975563450    11.544993981    -1.873680499
 H        1.829091530    13.959816546    -1.594345915
 H        1.114199806     9.467326240    -2.590319875
 H       -1.706783872     9.533506120    -3.868032217
 H        1.298423343     7.429422545    -2.804171323
 H        1.399217721     5.019682162    -3.110287751
 H       -2.557088813     5.123070584    -4.918389905
 H       -2.626341862     7.529505019    -4.566203729
 H       -9.411017697    15.945568502    -7.979669269
 H       -9.409307999    15.966517171    -6.204790557
 H       -6.780592651    16.816425265    -6.746569404
 H       -7.617732405    17.460082692    -8.151415317
 H       -7.845504256    19.258597580    -6.650840289
 H       -9.392030966    18.429514390    -6.392318974
 H        2.267319919    -1.030301034     0.020887010
 H        2.273400511     0.526641456     0.882922805
 H        2.275741121     0.491906268    -0.901713132
 H       -0.575014161     1.624550042    -6.362329509
 H        0.288831505     3.155031838    -6.659710435
 H       -1.490105510     3.132766300    -6.615580476
 H        1.922465869     2.688360194    -4.105226142
 H        1.113531248     2.530035847    -2.521213106
 H        1.029600005     1.200774889    -3.706130445
 H       -2.977209322     2.645252342    -3.961362207
 H       -2.029677782     1.186103100    -3.567448800
 H       -2.079088761     2.554518541    -2.425385153
 H        0.646238344    16.532878438    -4.507497085
 H        0.748316222    17.916831641    -3.386124197
 H        1.894181125    16.560078591    -3.239807081
 H       -0.622076787    15.913592640     0.187560519
 H        1.077879295    16.226167981    -0.246399935
 H       -0.128280002    17.531492892    -0.371886649
 H       -6.244951649    11.807082776     0.928844159
 H       -5.071900067    12.215487504     2.201417256
 H       -5.863319697    13.514017513     1.274527651
 H       -1.854026264    13.640196030    -0.208996604
 H       -3.133509885    14.738291261     0.381345900
 H       -2.402509558    13.542048027     1.482806451
 H       -0.250089875    -0.406023618    -2.446657853
 H       -0.297780659    -1.938493235    -1.537732099
 H       -1.727996185    -0.875206795    -1.571838131
 H       -0.265957874    -0.357726468     2.451453319
 H       -1.718458139    -0.895266779     1.574546057
 H       -0.255405957    -1.912081744     1.579928840

