139   

Si        0.000000000     0.000000000     0.000000000
 C        1.870839324     0.000000000     0.000000000
 C       -0.600709972     1.744488702     0.000000000
 C       -0.054407456     2.664392770    -0.902751761
 C       -0.494780605     3.986225780    -0.918228561
 C       -1.509447295     4.413634469    -0.055858860
 C       -2.060087984     3.489726241     0.840405185
 C       -1.607277744     2.172292401     0.873027869
 C       -1.996967667     5.789352221    -0.042935239
 C       -1.525698186     6.759242189    -0.844220416
 C       -1.991370654     8.140858167    -0.855045005
 C       -3.001435519     8.613958794    -0.012923178
 C       -3.407650599     9.947405403    -0.066349518
 C       -2.786996933    10.845009497    -0.941683589
 C       -1.764864557    10.374793248    -1.776383677
 C       -1.374666056     9.039501801    -1.735053073
Si       -3.303098512    12.612458384    -1.033458272
 C       -2.743790351    13.634220802     0.373553969
 C       -2.021545033    13.272446511     1.442031457
 C       -1.643460008    14.210836008     2.503419130
 C       -0.886409783    13.761124049     3.591999955
 C       -0.512796781    14.625113313     4.612653545
 C       -0.806368865    15.998738340     4.534512178
 C       -1.552917489    16.456956685     3.429005759
 C       -1.979615742    15.568814649     2.453519844
 N       -0.449179217    16.915797485     5.542409641
 C        0.379596241    16.456697699     6.665044542
 C       -0.100773721    18.271353476     5.077177835
 C        1.840402809    16.137064194     6.301065253
 C        2.689656722    15.743172789     7.524747691
 N        2.161958167    14.650608428     8.375289567
 C        1.498741742    13.619628089     7.661617879
 C        2.222526369    12.945066525     6.658299481
 C        1.622321954    11.930017811     5.931210945
 C        0.293089715    11.554297308     6.178974489
 C       -0.410949394    12.209523111     7.191643510
 C        0.184969626    13.215068656     7.944333900
 C        1.479733133    15.142039665     9.584736466
 C       -0.298054205    10.476075227     5.384962743
 C       -1.554743665    10.039075140     5.538042221
Si       -2.322755494     8.694528850     4.562312785
 C       -1.111582209     8.033957001     3.341262247
 C       -0.506169678     8.899908278     2.420207333
 C        0.410427516     8.412205256     1.492964207
 C        0.760506017     7.055615316     1.478821498
 C        0.159192801     6.197047050     2.402917690
 C       -0.771469185     6.678758556     3.322253842
 C        1.725020497     6.581607639     0.491718712
 C        2.117471158     5.301260980     0.380962137
 C        3.078022137     4.799717213    -0.594197787
 C        3.702196093     5.621876947    -1.534956494
 C        4.615084176     5.092283294    -2.447568809
 C        4.916747962     3.727560208    -2.441745967
 C        4.290401303     2.899954056    -1.499643690
 C        3.384373513     3.431934415    -0.587520035
Si        6.118459201     2.992665185    -3.633341394
 C        6.805629096     4.297658346    -4.780941333
 C        7.518536577     2.216310167    -2.668838687
 C        5.233189373     1.688761184    -4.639140928
 C       -2.910425050     7.359968299     5.728200941
 C       -3.771663744     9.409949983     3.621868744
 C       -2.634714087    13.398321422    -2.595315965
 C       -5.174026970    12.669791804    -1.071625894
 C       -0.633993827    -0.839389583    -1.544107615
 C       -0.612149817    -0.911941020     1.512178166
 H        0.733797815     2.390698740    -1.611127826
 H       -0.038240273     4.687149834    -1.616709992
 H       -2.848988031     3.801868188     1.521812325
 H       -2.068493895     1.498834961     1.599484613
 H       -2.788040191     5.995313850     0.682550624
 H       -0.725429968     6.544292841    -1.560617228
 H       -3.482979218     7.937029985     0.690724672
 H       -4.213553871    10.256964117     0.605196147
 H       -1.240321682    11.028151377    -2.479004250
 H       -0.582095385     8.692003959    -2.395081289
 H       -3.083460230    14.680298733     0.262233327
 H       -1.660787287    12.248926681     1.603195220
 H       -0.606143861    12.706813288     3.664197029
 H        0.028089541    14.219626604     5.465646453
 H       -1.822472076    17.505040933     3.346432577
 H       -2.578852244    15.950068483     1.625467008
 H        0.369996665    18.853562272     5.884820873
 H       -1.029156523    18.801753978     4.796196622
 H        0.580330321    18.268523011     4.210723922
 H        2.178658208    15.781450748    10.151899499
 H        1.234831842    14.285337735    10.238296517
 H        0.560412308    15.715217823     9.390835395
 H        3.255868054    13.222032545     6.463924334
 H        2.193691604    11.416214826     5.156734956
 H       -1.444291448    11.932672293     7.405963964
 H       -0.390351816    13.694004083     8.730850569
 H        0.398254754    10.046280447     4.650183243
 H       -2.228216116    10.485508103     6.286568203
 H       -0.743312480     9.968138656     2.382310454
 H        0.855532799     9.094033205     0.770426892
 H        0.405987893     5.136021456     2.405770445
 H       -1.211787498     5.956945440     4.014894990
 H        2.123970965     7.352397437    -0.172262186
 H        1.706343271     4.535144834     1.048105348
 H        3.481563754     6.687339084    -1.561370020
 H        5.075307659     5.783914039    -3.157831458
 H        4.489689405     1.825944522    -1.447365146
 H        2.907092259     2.776979997     0.141071089
 H        0.345430903    17.241913268     7.454501853
 H       -0.119251704    15.560741016     7.105917004
 H        1.867302523    15.324919041     5.545651123
 H        2.305249495    17.008471320     5.803626869
 H        3.694357115    15.405710286     7.171101200
 H        2.872726935    16.638025263     8.157979328
 H        2.268273399    -1.029970545    -0.017285041
 H        2.270421261     0.494492927     0.903743991
 H        2.277188968     0.528043047    -0.881506064
 H        7.530576685     3.861406581    -5.491339148
 H        7.329974909     5.092934187    -4.221486223
 H        6.007234440     4.775145410    -5.376279079
 H        8.041605341     2.967842256    -2.049692878
 H        7.154580438     1.425630534    -1.989342225
 H        8.265916769     1.760557163    -3.341782481
 H        4.396171363     2.126892515    -5.212522728
 H        5.915457077     1.207595350    -5.361698533
 H        4.813343114     0.894926527    -3.996582945
 H       -2.071203267     6.932670695     6.306733740
 H       -3.641252432     7.754676521     6.455985441
 H       -3.399605963     6.532612944     5.184705583
 H       -3.441847934    10.208165182     2.929328398
 H       -4.281057436     8.636223861     3.021502387
 H       -4.518491087     9.852395152     4.303784237
 H       -1.532817016    13.470429012    -2.573246274
 H       -2.918422273    12.817029531    -3.490209972
 H       -3.027570019    14.422020640    -2.726407722
 H       -5.609627357    12.278886279    -0.135004084
 H       -5.543941408    13.701157326    -1.204119391
 H       -5.572146626    12.061782036    -1.903486878
 H       -0.283354506    -0.324179839    -2.456496509
 H       -0.296049153    -1.888583934    -1.600924531
 H       -1.738584150    -0.842688352    -1.573294037
 H       -0.300214573    -0.406157050     2.443279233
 H       -1.713785100    -0.986907908     1.524192865
 H       -0.213178528    -1.941333436     1.545847279

