139   

Si        0.000000000     0.000000000     0.000000000
 C        1.869183863     0.000000000     0.000000000
 C       -0.655736394     1.725591349     0.000000000
 C        0.192122612     2.832503698     0.098712567
 C       -0.327464073     4.127182925     0.096564783
 C       -1.704059779     4.344414918    -0.002213366
 C       -2.552900312     3.233295134    -0.099577895
 C       -2.037416802     1.940184658    -0.098069670
 C       -2.292215229     5.679973478    -0.008410425
 C       -1.592056252     6.823844050     0.078172470
 C       -2.178510876     8.160187580     0.072127974
 C       -3.555709984     8.378668417    -0.026660048
 C       -4.073404015     9.673410395    -0.028661552
 C       -3.220858557    10.778753208     0.060122469
 C       -1.840625114    10.563991431     0.158487346
 C       -1.327748569     9.269235158     0.167534300
Si       -3.897905047    12.495687176     0.058129489
 C       -2.570635439    13.634133158    -0.485931218
 C       -2.072612661    14.649664194     0.231998275
 C       -1.009858233    15.541140760    -0.235112849
 C       -0.568545299    16.572471372     0.607055137
 C        0.433724907    17.442518670     0.212458465
 C        1.006074142    17.336509418    -1.075430676
 C        0.563623532    16.301013094    -1.921939819
 C       -0.411648600    15.411428194    -1.491656818
 N        2.018356690    18.225155887    -1.456506495
 C        1.938018562    19.613290144    -0.975569617
 C        2.590741946    18.073934948    -2.799791739
 C        0.592710498    20.322766318    -1.217526440
 C        0.371346523    20.794341944    -2.665633808
 N        1.255560426    21.875295506    -3.144747634
 C        2.494223054    21.448740384    -3.685114279
 C        2.451220971    20.625033382    -4.828549729
 C        3.626318130    20.173639085    -5.405953107
 C        4.876116166    20.551515096    -4.890787381
 C        4.912538814    21.392255460    -3.775850774
 C        3.740921303    21.850015696    -3.182370447
 C        1.306670089    23.039687958    -2.248101213
 C        6.087927272    20.045080529    -5.540113297
 C        7.331612229    20.336876016    -5.138335862
Si        8.873323781    19.726273979    -5.920071933
 C        9.845048600    21.185139194    -6.494636116
 C        9.205425216    22.400936554    -6.757857748
 C        9.937192571    23.505582586    -7.192317377
 C       11.319341157    23.417563840    -7.380429036
 C       11.956216084    22.196626592    -7.120404722
 C       11.229243967    21.092098002    -6.683440680
 C       12.125209698    24.546925773    -7.833535677
 C       11.639177024    25.767446052    -8.116425428
 C       12.443462622    26.897668877    -8.569542618
 C       13.825976327    26.813079328    -8.755489401
 C       14.555727700    27.919154338    -9.190185695
 C       13.916101082    29.133971703    -9.458077921
 C       12.530238214    29.220842578    -9.273708660
 C       11.805146230    28.117066666    -8.831921247
Si       14.876130556    30.602422952   -10.033910615
 C       16.429429026    30.051597494   -10.916344462
 C       13.838150649    31.615556878   -11.213494787
 C       15.327221878    31.631394778    -8.540905236
 C        9.832341606    18.772825466    -4.631601083
 C        8.517595701    18.632763068    -7.390354962
 C       -5.311243901    12.629530247    -1.157173597
 C       -4.496723430    12.899558508     1.779930752
 C       -0.612939703    -0.879176901    -1.531502635
 C       -0.620859377    -0.873043947     1.531276404
 H        1.277442294     2.726497399     0.178754493
 H        0.354941753     4.971950021     0.173671186
 H       -3.628619266     3.380367734    -0.177126374
 H       -2.748580324     1.113070358    -0.176221962
 H       -3.382833335     5.699238680    -0.091055881
 H       -0.501193620     6.804214629     0.161052667
 H       -4.238258982     7.534353437    -0.101992562
 H       -5.158492952     9.781969349    -0.106100777
 H       -1.128346727    11.393138787     0.230689637
 H       -0.252255265     9.120876660     0.247234112
 H       -2.193688296    13.415663677    -1.498261323
 H       -2.428856034    14.893193550     1.241689269
 H       -1.012074742    16.686132998     1.596764797
 H        0.782692007    18.205672815     0.901586019
 H        0.977814213    16.183594745    -2.917976004
 H       -0.724806582    14.608087201    -2.160854279
 H        3.436742957    18.774505110    -2.930818637
 H        1.869396977    18.258406798    -3.612421331
 H        3.004239264    17.054497853    -2.908893641
 H        0.274901754    23.374748965    -2.041281289
 H        1.820164874    23.870874338    -2.764346565
 H        1.813157549    22.855596790    -1.287867580
 H        1.488747237    20.357101838    -5.260391036
 H        3.577212769    19.530471318    -6.285221106
 H        5.871897143    21.703748129    -3.359207449
 H        3.804794350    22.505556302    -2.318890453
 H        5.878690269    19.396418668    -6.400797419
 H        7.510720184    20.991653504    -4.269553159
 H        8.125198457    22.528660392    -6.630528577
 H        9.417724260    24.442398889    -7.386716228
 H       13.031818348    22.107457283    -7.260642091
 H       11.779670159    20.166486992    -6.494595601
 H       13.193589835    24.334788044    -7.934539058
 H       10.570197570    25.978103043    -8.015516589
 H       14.347026531    25.877437643    -8.560084514
 H       15.634717522    27.791840856    -9.314473131
 H       11.976154239    30.143446288    -9.467624552
 H       10.729104404    28.205127977    -8.692706589
 H        2.153904738    19.596456742     0.120288130
 H        2.767534186    20.199926623    -1.433245793
 H       -0.241351392    19.643199835    -0.941173172
 H        0.507552321    21.179311549    -0.523007894
 H        0.449727336    19.924994845    -3.355911996
 H       -0.673700289    21.175249243    -2.768193727
 H        2.266918972    -1.030534189    -0.018795423
 H        2.275601132     0.493495670     0.900691828
 H        2.273062385     0.525728822    -0.883659945
 H       16.975679443    30.913958483   -11.338421312
 H       16.193739188    29.367565339   -11.751655080
 H       17.121468211    29.523824348   -10.237003289
 H       13.486377454    31.002385423   -12.063026127
 H       12.947430611    32.038246586   -10.716795779
 H       14.415782332    32.459772248   -11.630176058
 H       15.937582715    31.053103913    -7.823957613
 H       15.907161186    32.525930911    -8.828350217
 H       14.425971599    31.975512515    -8.002402743
 H       10.134854997    19.423488694    -3.791001634
 H        9.225872927    17.949613035    -4.211820028
 H       10.749577730    18.326805114    -5.054295262
 H        7.945004912    19.174290579    -8.165554755
 H        9.452276102    18.279097448    -7.862028738
 H        7.933325515    17.741713114    -7.099995603
 H       -5.002526109    12.311139299    -2.169282873
 H       -6.167661212    12.001452674    -0.856801202
 H       -5.672637677    13.671039884    -1.233222454
 H       -3.676429681    12.828378630     2.517529519
 H       -4.910850579    13.921866684     1.833712897
 H       -5.289104371    12.200834088     2.102954046
 H       -0.269145082    -0.368429378    -2.449406291
 H       -0.245477913    -1.919642987    -1.571887833
 H       -1.716035945    -0.913479324    -1.566733301
 H       -0.275850868    -0.363634358     2.449475800
 H       -1.724547381    -0.897591684     1.563761562
 H       -0.261855604    -1.916301500     1.573675853

