139   

Si        0.000000000     0.000000000     0.000000000
 C        1.870455791     0.000000000     0.000000000
 C       -0.645786372     1.730365660     0.000000000
 C        0.195358535     2.830835600    -0.189126645
 C       -0.319838477     4.127331086    -0.184392701
 C       -1.681681619     4.353132622     0.030843012
 C       -2.523776445     3.249113334     0.220649069
 C       -2.015653889     1.953527533     0.195583486
 C       -2.268062018     5.689049218     0.045078353
 C       -1.582169118     6.829188818    -0.142726598
 C       -2.169629390     8.164939531    -0.128298743
 C       -1.331432036     9.267409811    -0.339388741
 C       -1.842851234    10.562720124    -0.335216485
 C       -3.211724034    10.786094718    -0.145185735
 C       -4.052037111     9.686067520     0.061219999
 C       -3.533841449     8.391743334     0.077046959
Si       -3.904548337    12.496561938    -0.137090653
 C       -5.090155488    12.723523919    -1.513564772
 C       -5.430879052    11.797145140    -2.419733131
 C       -6.385668614    12.023458409    -3.505813231
 C       -6.664214621    10.977339553    -4.395321474
 C       -7.560123177    11.140351305    -5.439832530
 C       -8.235035572    12.362715228    -5.628218240
 C       -7.947312070    13.419759233    -4.737758669
 C       -7.027013226    13.248748087    -3.713015470
 N       -9.148375733    12.562740779    -6.674632576
 C       -9.615535641    11.409534164    -7.464055332
 C      -10.202254504    13.563318203    -6.428473173
 C       -9.811483124    11.803532097    -8.942161590
 C       -8.483439114    12.072081261    -9.679287336
 N       -7.709005189    10.884077248   -10.093956570
 C       -6.960762023    10.285935340    -9.042141752
 C       -5.895653752    11.041992981    -8.513320746
 C       -5.122631889    10.525919374    -7.488048086
 C       -5.356958972     9.233873498    -6.988270378
 C       -6.393514166     8.478736763    -7.538225440
 C       -7.185550862     8.988759124    -8.563454426
 C       -8.466596792     9.954122980   -10.945978558
 C       -4.505733605     8.742996524    -5.902591166
 C       -4.623975448     7.533920958    -5.338646051
Si       -3.555384509     6.926646267    -3.980740856
 C       -2.623004152     5.404224936    -4.427866025
 C       -2.789905973     4.746365856    -5.650219893
 C       -2.056218980     3.596004911    -5.935390245
 C       -1.151264446     3.071983528    -5.003543919
 C       -0.989965304     3.730419133    -3.780950799
 C       -1.715498787     4.884631580    -3.496487599
 C       -0.404689971     1.865732856    -5.344906570
 C        0.495065924     1.273348286    -4.541331336
 C        1.242762659     0.067258255    -4.880422896
 C        1.089096936    -0.598242587    -6.099075383
 C        1.825189459    -1.749224179    -6.381575117
 C        2.733815482    -2.259212224    -5.449960435
 C        2.896122033    -1.589810793    -4.229249356
 C        2.164253196    -0.438724349    -3.953329713
Si        3.723244101    -3.779023558    -5.791314601
 C        3.278191961    -4.502977566    -7.455948791
 C        5.537001770    -3.328370233    -5.776762218
 C        3.365000154    -5.038777830    -4.457156217
 C       -2.330304751     8.249418505    -3.498680441
 C       -4.699660804     6.523764979    -2.557782007
 C       -4.796128003    12.772256979     1.482379341
 C       -2.544744345    13.765208481    -0.326019378
 C       -0.619086411    -0.854776536    -1.539917254
 C       -0.615462914    -0.887743925     1.524587990
 H        1.271218537     2.717692913    -0.347346050
 H        0.355555015     4.966591888    -0.341137684
 H       -3.589452862     3.402621406     0.380706068
 H       -2.723437436     1.131384570     0.334917283
 H       -3.344460178     5.712252132     0.242566169
 H       -0.503532740     6.805737216    -0.325759018
 H       -0.265915597     9.114725715    -0.500947884
 H       -1.137791317    11.383191387    -0.494610347
 H       -5.129374607     9.800930841     0.215948818
 H       -4.206492160     7.553846466     0.251902693
 H       -5.528396600    13.733661353    -1.544600675
 H       -5.010110012    10.780889331    -2.416543811
 H       -6.167402070    10.011051392    -4.271187166
 H       -7.732095962    10.302101115    -6.113604011
 H       -8.425414007    14.385973331    -4.857895819
 H       -6.814522534    14.089729012    -3.051981043
 H      -11.006061242    13.488372680    -7.177365632
 H       -9.766036244    14.574931754    -6.520446242
 H      -10.659847562    13.462779858    -5.429583445
 H       -8.868629864    10.511348820   -11.809498998
 H       -9.301300908     9.442440878   -10.443023462
 H       -7.775478757     9.189505329   -11.343997635
 H       -5.694797448    12.036059486    -8.908911862
 H       -4.317395391    11.130719051    -7.068379711
 H       -6.590781353     7.471894885    -7.169370403
 H       -7.982910023     8.377743952    -8.973652091
 H       -3.743011984     9.472126320    -5.593142244
 H       -5.396109072     6.822088302    -5.666990715
 H       -3.482026750     5.111819810    -6.413628471
 H       -2.192301351     3.100457242    -6.894420252
 H       -0.301408957     3.340042397    -3.031294498
 H       -1.548635643     5.351758654    -2.518656817
 H       -0.628834347     1.452449360    -6.332437998
 H        0.719754783     1.691645351    -3.555155742
 H        0.387616598    -0.223038026    -6.842194647
 H        1.660606582    -2.225882250    -7.351622444
 H        3.593909556    -1.940537610    -3.463923715
 H        2.314187896     0.074756912    -3.005084782
 H       -8.872387951    10.578970561    -7.415509086
 H      -10.565056821    11.000941170    -7.052150744
 H      -10.382158119    11.006801786    -9.452584534
 H      -10.438879910    12.712739557    -9.012249290
 H       -8.686010053    12.659104929   -10.604182633
 H       -7.835231792    12.714492574    -9.035908361
 H        2.265603090    -1.031303276    -0.032450304
 H        2.271053077     0.477650704     0.911735325
 H        2.283796953     0.540818628    -0.869093462
 H        3.849017921    -5.428068474    -7.653035509
 H        3.499134542    -3.797993464    -8.277122455
 H        2.205197039    -4.759368206    -7.511866816
 H        5.768554707    -2.578663357    -6.555176302
 H        5.840446864    -2.898925508    -4.805683774
 H        6.172426524    -4.211491919    -5.965056792
 H        2.293003917    -5.306821897    -4.439009266
 H        3.937847781    -5.968759044    -4.618566171
 H        3.626581623    -4.655110347    -3.455360325
 H       -1.712482686     8.561141217    -4.359286400
 H       -2.836390367     9.148208196    -3.099114208
 H       -1.641654228     7.890267558    -2.711572754
 H       -5.492060746     5.819746754    -2.865811886
 H       -4.142653270     6.053412618    -1.728405887
 H       -5.188181206     7.434875311    -2.168352307
 H       -5.634303938    12.063447291     1.607418649
 H       -4.114663499    12.634974663     2.341051237
 H       -5.212696158    13.792776557     1.545437794
 H       -2.015343100    13.649379405    -1.289020698
 H       -2.950608786    14.792258288    -0.297052549
 H       -1.798131144    13.681702219     0.483162405
 H       -0.248982766    -0.360097656    -2.459503838
 H       -0.287238825    -1.907325911    -1.580571667
 H       -1.722443688    -0.848949035    -1.592903292
 H       -0.282425147    -0.379095661     2.447034986
 H       -1.718196093    -0.933857440     1.553369516
 H       -0.239664286    -1.925414406     1.563456788

