139   

Si        0.000000000     0.000000000     0.000000000
 C        1.869186697     0.000000000     0.000000000
 C       -0.654065488     1.726334430     0.000000000
 C        0.167224557     2.817398608    -0.299666654
 C       -0.345543152     4.114706082    -0.294509072
 C       -1.690004439     4.350081406     0.004191735
 C       -2.512843340     3.254961922     0.300625056
 C       -2.003496418     1.959354387     0.298083004
 C       -2.271142367     5.688468977     0.021917195
 C       -1.595988815     6.820402810    -0.240684019
 C       -2.180416866     8.157510371    -0.222060413
 C       -1.362497347     9.255793251    -0.515600401
 C       -1.877525481    10.550595838    -0.509679353
 C       -3.223540507    10.777383141    -0.203451925
 C       -4.043380217     9.680668611     0.090231927
 C       -3.527016054     8.386446418     0.077522913
Si       -3.942244495    12.475818033    -0.185204775
 C       -5.140949990    12.648625291    -1.557699745
 C       -5.433394441    11.673875587    -2.428885480
 C       -6.389655252    11.804773661    -3.527455711
 C       -6.601947768    10.703040069    -4.367749087
 C       -7.495294083    10.768508198    -5.424009095
 C       -8.179953729    11.970408705    -5.707303646
 C       -7.969482176    13.075311130    -4.860994546
 C       -7.108073028    12.977262412    -3.776368880
 N       -9.084216594    12.020182075    -6.784007422
 C       -8.765383130    11.191971990    -7.964022901
 C       -9.638269413    13.341246641    -7.121804435
 C       -7.336036409    11.345156876    -8.515597343
 C       -7.171558212    12.554450701    -9.456284553
 N       -5.910747632    13.307410856    -9.269560289
 C       -5.895005159    14.059916396    -8.054235618
 C       -6.709406842    15.206226874    -8.020267598
 C       -6.751336934    15.991049207    -6.879232740
 C       -5.972053601    15.671992084    -5.756344200
 C       -5.150231998    14.543495836    -5.805779894
 C       -5.100495122    13.745492436    -6.945329170
 C       -4.713461245    12.482337158    -9.507361056
 C       -6.063629130    16.543510730    -4.582968892
 C       -5.383754910    16.368124866    -3.442162335
Si       -5.534073197    17.490144243    -1.999015158
 C       -6.736198349    18.829883462    -2.404674343
 C       -6.390307554    19.808802778    -3.344230100
 C       -7.282877465    20.829617820    -3.665609999
 C       -8.544198349    20.890943240    -3.065119610
 C       -8.890465457    19.906850957    -2.130723450
 C       -7.998794844    18.887186996    -1.804611629
 C       -9.510969404    21.940462322    -3.370336316
 C       -9.304512703    22.940157891    -4.244366525
 C      -10.271984941    23.989387869    -4.548998555
 C      -11.531085217    24.052018433    -3.945581634
 C      -12.425241710    25.072790213    -4.266308666
 C      -12.075957846    26.060417017    -5.193603096
 C      -10.814611244    26.000089645    -5.799308335
 C       -9.926414807    24.975104285    -5.482766225
Si      -13.258784431    27.412895666    -5.619513968
 C      -14.378635895    27.767048042    -4.164983238
 C      -12.320148750    28.970472292    -6.053027542
 C      -14.279690389    26.860551989    -7.083683766
 C       -6.127712735    16.502906195    -0.527989338
 C       -3.862376873    18.229971268    -1.617884705
 C       -4.822982702    12.762565461     1.437902553
 C       -2.611336178    13.770406651    -0.407394279
 C       -0.626663910    -0.867957438    -1.531559768
 C       -0.605306022    -0.887703125     1.530014186
 H        1.226617306     2.696470540    -0.542003258
 H        0.316026542     4.947080675    -0.528081370
 H       -3.563227719     3.416343121     0.536552347
 H       -2.693484243     1.145464090     0.537938438
 H       -3.335693708     5.720753532     0.273000132
 H       -0.531677987     6.789157886    -0.491349227
 H       -0.311918932     9.099853270    -0.753108673
 H       -1.192370281    11.367779671    -0.750842975
 H       -5.104149683     9.797364286     0.334442579
 H       -4.184952993     7.550017566     0.306846046
 H       -5.622978608    13.636292685    -1.619922836
 H       -4.962953661    10.680112843    -2.385437918
 H       -6.063467834     9.772204560    -4.183869683
 H       -7.667635940     9.884840263    -6.030777614
 H       -8.469637938    14.022140465    -5.044014727
 H       -6.974806935    13.848032902    -3.130390423
 H      -10.329060608    13.256020048    -7.975754013
 H       -8.867337567    14.093433678    -7.365410136
 H      -10.232791018    13.710316275    -6.265217658
 H       -4.741517763    12.118974061   -10.549241215
 H       -4.611613397    11.613260591    -8.839639483
 H       -3.812945321    13.113405904    -9.404742365
 H       -7.291025120    15.475274573    -8.899675681
 H       -7.389570274    16.875064703    -6.860881022
 H       -4.542182163    14.270389164    -4.941331427
 H       -4.461030361    12.867080359    -6.952398636
 H       -6.765626521    17.379183038    -4.729578362
 H       -4.686602908    15.527020575    -3.307737510
 H       -5.420039861    19.810817586    -3.850870305
 H       -6.988587243    21.582414999    -4.394915611
 H       -9.867713653    19.935381202    -1.652258787
 H       -8.326311240    18.145893621    -1.070279506
 H      -10.455496551    21.865213514    -2.823362075
 H       -8.359986954    23.016156154    -4.791312690
 H      -11.825447446    23.298899098    -3.216707377
 H      -13.395933877    25.066920896    -3.762611482
 H      -10.486449683    26.743910063    -6.530678570
 H       -8.951532615    24.944318921    -5.966090189
 H       -8.936776296    10.128339603    -7.668320881
 H       -9.511544841    11.400640444    -8.761507065
 H       -6.621684666    11.432676513    -7.668865588
 H       -7.045137625    10.418105435    -9.041508993
 H       -7.203464645    12.224705633   -10.518395033
 H       -8.016666992    13.266654337    -9.330810544
 H        2.266969244    -1.028259503     0.070489477
 H        2.271524859     0.569580210     0.857092618
 H        2.277616780     0.448239653    -0.922870186
 H      -15.044563585    28.623394584    -4.373210628
 H      -13.793372725    28.014177522    -3.260653795
 H      -15.020404722    26.902366986    -3.921550649
 H      -11.648053912    29.274222501    -5.229928575
 H      -11.701404932    28.838514898    -6.957708113
 H      -13.010169820    29.811385303    -6.245185464
 H      -14.841557115    25.936711819    -6.856479607
 H      -15.011582750    27.632786673    -7.378856852
 H      -13.643078268    26.650058767    -7.961819782
 H       -7.022269507    15.901904294    -0.773002257
 H       -5.348759433    15.807746320    -0.168820067
 H       -6.388309512    17.164852026     0.317155125
 H       -3.462850033    18.795858295    -2.478545390
 H       -3.920718538    18.927545873    -0.762993200
 H       -3.122734582    17.450358184    -1.363329818
 H       -5.656131458    12.050404087     1.576674377
 H       -4.133999008    12.636027181     2.292230008
 H       -5.245133839    13.780982356     1.496469378
 H       -2.117959152    13.676348996    -1.391716612
 H       -3.028691738    14.791274171    -0.345170449
 H       -1.832955271    13.683301845     0.370809519
 H       -0.281326952    -0.359879934    -2.450136123
 H       -0.273517184    -1.913181112    -1.575295637
 H       -1.730758031    -0.886235297    -1.561485677
 H       -0.287670497    -0.360697362     2.448236586
 H       -1.706766834    -0.958457809     1.553340745
 H       -0.205454479    -1.915844575     1.581359371

