139   

Si        0.000000000     0.000000000     0.000000000
 C        1.867596921     0.000000000     0.000000000
 C       -0.622493699     1.738291351     0.000000000
 C       -0.103330805     2.656343431    -0.920927549
 C       -0.556745404     3.974040184    -0.940978403
 C       -1.550198797     4.401086146    -0.054297713
 C       -2.071501554     3.480018573     0.863350916
 C       -1.611219843     2.164988359     0.893858606
 C       -2.053900538     5.770210702    -0.040743262
 C       -1.628656934     6.747611946    -0.859166932
 C       -2.131825462     8.117265249    -0.846375109
 C       -1.600423771     9.041054758    -1.756529206
 C       -2.050940882    10.358088008    -1.779386302
 C       -3.070086288    10.776451369    -0.912504635
 C       -3.608862405     9.853033561    -0.011743127
 C       -3.140530806     8.539606087     0.023325137
Si       -3.654652820    12.525274699    -0.956478794
 C       -3.969030558    13.116518002    -2.661359064
 C       -3.812602376    12.411837004    -3.788975342
 C       -4.080862658    12.940115115    -5.129355080
 C       -3.878373006    12.101186932    -6.236403704
 C       -4.117733546    12.553546767    -7.523874785
 C       -4.533797456    13.880658364    -7.739475346
 C       -4.737052279    14.723199552    -6.638820973
 C       -4.527495025    14.245001300    -5.349089116
 N       -4.760044711    14.272453933    -9.090217724
 C       -3.527005673    14.375465469    -9.896856682
 C       -5.673056209    15.413107932    -9.271078775
 C       -2.618980537    15.585017890    -9.596157652
 C       -1.693973444    15.377370607    -8.380301593
 N       -0.396178507    14.736114174    -8.672300607
 C       -0.487165636    13.378550793    -9.076299640
 C       -1.045790749    12.466173402    -8.159181467
 C       -1.163030154    11.127644593    -8.491742411
 C       -0.674590687    10.643760225    -9.715940434
 C       -0.093058459    11.546287854   -10.608034571
 C        0.004803307    12.899589179   -10.298738240
 C        0.497795441    15.588509971    -9.473711304
 C       -0.825852990     9.218541709   -10.015072154
 C       -0.404417730     8.632948221   -11.143715736
Si       -0.596781670     6.848412771   -11.512093350
 C       -1.447758238     6.029498213   -10.094913274
 C       -0.789268357     5.886372673    -8.867755092
 C       -1.424110556     5.268999537    -7.791221954
 C       -2.733638291     4.793795891    -7.911475584
 C       -3.392578236     4.944968403    -9.138078413
 C       -2.758784502     5.555723380   -10.217505630
 C       -3.440958501     4.141211307    -6.815469146
 C       -2.931720297     3.930668687    -5.590058778
 C       -3.647552139     3.276566913    -4.499622683
 C       -4.954183941     2.799480570    -4.631750852
 C       -5.599497976     2.180177571    -3.560982071
 C       -4.945630081     2.017237129    -2.336548055
 C       -3.634397789     2.491225449    -2.203563879
 C       -2.994689836     3.112991700    -3.271339292
Si       -5.755818578     1.205430921    -0.892066653
 C       -7.475339474     0.619262106    -1.329822347
 C       -4.714885438    -0.252864678    -0.359087493
 C       -5.850685964     2.453519820     0.497074022
 C       -1.588112674     6.667875213   -13.085347557
 C        1.091560055     6.083921728   -11.748149767
 C       -5.245922593    12.709635662     0.006686773
 C       -2.325310635    13.598228804    -0.197911457
 C       -0.649524206    -0.824045071    -1.546351474
 C       -0.620649061    -0.920879638     1.503441594
 H        0.668956530     2.378891853    -1.644345757
 H       -0.127877811     4.672797552    -1.657377933
 H       -2.840684203     3.794208686     1.566725457
 H       -2.050612050     1.493133020     1.636246970
 H       -2.832610708     5.964457719     0.702446665
 H       -0.853754217     6.552556484    -1.606391882
 H       -0.820675871     8.730050137    -2.449611583
 H       -1.580125618    11.040464890    -2.494884097
 H       -4.407806415    10.119732830     0.685627621
 H       -3.575570158     7.840929116     0.735825710
 H       -4.316717868    14.162656117    -2.692617696
 H       -3.480172057    11.364101676    -3.794961143
 H       -3.544489944    11.073958578    -6.082496421
 H       -3.986777125    11.888306302    -8.377734073
 H       -5.059559996    15.749815180    -6.781238509
 H       -4.703443684    14.911108053    -4.504682162
 H       -5.920315175    15.499213328   -10.343522854
 H       -5.279348578    16.381305941    -8.926757669
 H       -6.616156632    15.206992790    -8.734308077
 H        0.624675641    16.554983304    -8.955326154
 H        0.145832852    15.787228311   -10.497513560
 H        1.495424116    15.117362688    -9.527187850
 H       -1.389945089    12.822119982    -7.187867668
 H       -1.621564991    10.437499165    -7.781856876
 H        0.290419418    11.194981749   -11.565821058
 H        0.450038154    13.576029988   -11.021142450
 H       -1.331128063     8.661119229    -9.211710593
 H        0.096844518     9.207924190   -11.936554003
 H        0.233250014     6.243763961    -8.713076306
 H       -0.890159425     5.162298780    -6.848818279
 H       -4.412617191     4.582569522    -9.252275994
 H       -3.323865588     5.644876756   -11.149514855
 H       -4.457530692     3.816958971    -7.057588133
 H       -1.916813297     4.255478776    -5.342694719
 H       -5.483971147     2.911582035    -5.575611301
 H       -6.622931720     1.832588473    -3.722306051
 H       -3.069707481     2.392002082    -1.268941872
 H       -1.975998086     3.476981333    -3.142177972
 H       -2.950965221    13.427561569    -9.776036197
 H       -3.842214242    14.403969064   -10.965412955
 H       -2.012523218    15.807660904   -10.494187594
 H       -3.236882282    16.486905191    -9.432399689
 H       -1.476556941    16.358736509    -7.900537992
 H       -2.212565276    14.772872411    -7.599480926
 H        2.268091520    -1.029214437     0.015525550
 H        2.268588399     0.525069855     0.885950366
 H        2.277820276     0.501226369    -0.894207651
 H       -7.968043039     0.143453104    -0.463559931
 H       -7.453601624    -0.124126100    -2.146405841
 H       -8.118116269     1.456543076    -1.655175919
 H       -4.561651962    -0.962196177    -1.191854971
 H       -3.717821682     0.076104231    -0.015632173
 H       -5.188982288    -0.806500315     0.469291603
 H       -6.453971488     3.331402616     0.202917082
 H       -6.309007004     2.019424619     1.401678154
 H       -4.844888490     2.821875832     0.769974276
 H       -2.570976601     7.166526786   -13.003969028
 H       -1.061490667     7.119719628   -13.944886127
 H       -1.767537270     5.605283038   -13.327869233
 H        1.728497168     6.225208156   -10.856518208
 H        1.013656663     4.996937611   -11.931329834
 H        1.620956686     6.530750997   -12.607978667
 H       -6.037237549    12.053898485    -0.401235782
 H       -5.109614540    12.451995010     1.071505047
 H       -5.623824852    13.746695272    -0.036565797
 H       -1.383337511    13.535458403    -0.772690577
 H       -2.627761607    14.659472760    -0.168631784
 H       -2.101587983    13.284404399     0.837538662
 H       -0.301567066    -0.305237106    -2.457995516
 H       -0.320817286    -1.875497670    -1.613738539
 H       -1.755655408    -0.817077026    -1.570674959
 H       -0.301746325    -0.427646366     2.438933304
 H       -1.722946279    -0.988008735     1.516796033
 H       -0.228896288    -1.953642938     1.526226747

