139   

Si        0.000000000     0.000000000     0.000000000
 C        1.870301298     0.000000000     0.000000000
 C       -0.589712609     1.747277764     0.000000000
 C       -0.208694306     2.598028781    -1.044326559
 C       -0.637537402     3.923187781    -1.073090510
 C       -1.464456548     4.425303429    -0.064231387
 C       -1.847538862     3.572126693     0.978407377
 C       -1.414708116     2.248228141     1.012522468
 C       -1.938902295     5.804305345    -0.050916294
 C       -1.642102112     6.724581622    -0.983506336
 C       -2.120957251     8.102171765    -0.962691880
 C       -1.736173748     8.961990457    -1.998977614
 C       -2.167344037    10.284635759    -2.022866723
 C       -3.024257014    10.774453674    -1.026992685
 C       -3.416301007     9.914955800     0.003053038
 C       -2.962747699     8.596038480     0.037689632
Si       -3.584585107    12.532211296    -1.077019527
 C       -4.027387162    13.042205082    -2.781086002
 C       -3.959859704    12.255979061    -3.862659977
 C       -4.315428019    12.672016883    -5.218682964
 C       -4.192459932    11.733005790    -6.255292031
 C       -4.513430901    12.066539072    -7.558942707
 C       -4.922788807    13.379747288    -7.873370810
 C       -5.043475221    14.321955817    -6.839854673
 C       -4.761470329    13.957386742    -5.527376572
 N       -5.239921692    13.670767971    -9.219933917
 C       -4.223634879    13.251837190   -10.211120672
 C       -5.799207071    15.004988018    -9.492175527
 C       -2.754203009    13.410144757    -9.781216244
 C       -2.414411515    14.849679865    -9.356738902
 N       -1.012997376    15.027482985    -8.939631634
 C       -0.630552199    14.392217474    -7.732934610
 C       -1.404292217    14.611432246    -6.575301572
 C       -1.061366381    14.007031815    -5.375879989
 C        0.077948199    13.194249495    -5.273191687
 C        0.854335480    12.999331629    -6.417988250
 C        0.517091919    13.589328247    -7.630855383
 C       -0.067875561    14.920917074   -10.063595066
 C        0.406728503    12.572590736    -3.986211950
 C        1.472512049    11.783577146    -3.796971095
Si        1.998226698    10.947906242    -2.253444853
 C        2.019859655     9.127039788    -2.562943587
 C        1.340079125     8.573628661    -3.652828466
 C        1.362935885     7.197250627    -3.877338646
 C        2.046590189     6.343282207    -3.007804095
 C        2.717432375     6.899351466    -1.910167532
 C        2.704533076     8.273863434    -1.688423754
 C        2.100037704     4.897719863    -3.199233366
 C        1.504497961     4.235226075    -4.205264549
 C        1.559556687     2.789252809    -4.394384460
 C        2.252063080     1.939167750    -3.527873148
 C        2.277021340     0.562026124    -3.748689012
 C        1.602606628     0.003091935    -4.838002179
 C        0.902752823     0.852406386    -5.705718561
 C        0.881460722     2.226727446    -5.484290496
Si        1.617456568    -1.816020871    -5.156144765
 C        2.493946139    -2.714949721    -3.771141561
 C       -0.149694747    -2.417701216    -5.251043341
 C        2.498699481    -2.138060970    -6.770991741
 C        3.739678331    11.529963013    -1.889437734
 C        0.916440717    11.315419035    -0.783651806
 C       -5.079422014    12.783017566     0.013940804
 C       -2.174669877    13.613315054    -0.493966449
 C       -0.642816593    -0.823852141    -1.548223149
 C       -0.618113210    -0.922137861     1.503657039
 H        0.424103839     2.258024808    -1.871657483
 H       -0.320111280     4.565984354    -1.894816044
 H       -2.490978352     3.943886838     1.773105534
 H       -1.743995515     1.629929649     1.851064244
 H       -2.580459985     6.058595289     0.797875630
 H       -0.994709944     6.475187282    -1.830834712
 H       -1.082617089     8.593644522    -2.790484931
 H       -1.806237177    10.914562958    -2.844879723
 H       -4.083852629    10.236988090     0.806292166
 H       -3.277552579     7.949180607     0.854361081
 H       -4.364156075    14.087618565    -2.856533951
 H       -3.648791738    11.201214165    -3.814757857
 H       -3.849043290    10.721878092    -6.030499761
 H       -4.454232855    11.316769499    -8.343677072
 H       -5.357626008    15.339716752    -7.046401318
 H       -4.877543907    14.698991889    -4.736320627
 H       -6.167704688    15.035147757   -10.532405150
 H       -5.088911851    15.833795041    -9.348588070
 H       -6.678134060    15.171000875    -8.842832890
 H       -0.414144264    15.564133001   -10.890542819
 H        0.060568391    13.897556739   -10.449526874
 H        0.916956348    15.309059951    -9.745667594
 H       -2.286301851    15.246807743    -6.625007528
 H       -1.693965200    14.166497111    -4.499832664
 H        1.745339212    12.371321109    -6.371951353
 H        1.143236798    13.401206823    -8.496871303
 H       -0.305242493    12.815460173    -3.187873341
 H        2.165400534    11.573175913    -4.631004146
 H        0.786860806     9.194287227    -4.365944458
 H        0.836880425     6.791783336    -4.739515433
 H        3.250678988     6.250755890    -1.217082952
 H        3.243122929     8.649837143    -0.814074924
 H        2.678212971     4.358301107    -2.442100081
 H        0.926166535     4.773505381    -4.961762098
 H        2.791408770     2.349339068    -2.674801854
 H        2.841952645    -0.052471116    -3.041468131
 H        0.355651293     0.472340996    -6.572886418
 H        0.330262675     2.869555879    -6.168125776
 H       -4.423426629    12.175275180   -10.433636727
 H       -4.397295488    13.797536699   -11.163847402
 H       -2.521458993    12.721473452    -8.942354661
 H       -2.099010454    13.090913109   -10.612419278
 H       -2.618231784    15.559531712   -10.188681945
 H       -3.069913046    15.162654862    -8.510409328
 H        2.273066017    -1.027031015    -0.019069272
 H        2.268064271     0.498931816     0.901780659
 H        2.270671519     0.537019029    -0.878581746
 H        2.469908273    -3.808045346    -3.928021246
 H        2.019109197    -2.510506462    -2.793967829
 H        3.554545727    -2.416025706    -3.699136880
 H       -0.697636041    -2.196634054    -4.316009458
 H       -0.700312286    -1.935303463    -6.077599749
 H       -0.194692501    -3.508755886    -5.413771980
 H        3.543004484    -1.777909640    -6.736504279
 H        2.526464484    -3.216576648    -7.006413105
 H        2.002013405    -1.625463248    -7.613783254
 H        4.431940925    11.269408376    -2.709458176
 H        3.772999994    12.627088510    -1.763414894
 H        4.134111640    11.076274074    -0.964068614
 H       -0.088189570    10.861179274    -0.886635177
 H        1.353078111    10.905876616     0.145333355
 H        0.780169545    12.401447880    -0.638188094
 H       -5.908988736    12.117105059    -0.287632038
 H       -4.851202711    12.574887427     1.073749807
 H       -5.453325139    13.820421164    -0.045589880
 H       -1.288874900    13.509435947    -1.147351282
 H       -2.460078667    14.679583475    -0.486200955
 H       -1.863751182    13.343004378     0.530859763
 H       -0.332962742    -0.262927016    -2.450549721
 H       -0.268721405    -1.857084696    -1.646248429
 H       -1.746712367    -0.864059906    -1.552681143
 H       -0.262702933    -0.455582118     2.439346049
 H       -1.721816797    -0.944934947     1.538854055
 H       -0.266942506    -1.969140704     1.502774036

