139   

Si        0.000000000     0.000000000     0.000000000
 C        1.868944294     0.000000000     0.000000000
 C       -0.664308010     1.721917589     0.000000000
 C        0.177044096     2.836683253    -0.054539391
 C       -0.353324876     4.127195045    -0.053145459
 C       -1.734246812     4.331646155     0.001088456
 C       -2.576568543     3.212469206     0.054612682
 C       -2.050474940     1.923853775     0.053849177
 C       -2.335734998     5.661061765     0.004820487
 C       -1.647580980     6.814420197    -0.042335115
 C       -2.255148336     8.141523068    -0.038312811
 C       -1.420874820     9.266010859    -0.091091012
 C       -1.956518101    10.551818605    -0.089401982
 C       -3.342466399    10.741913855    -0.043623079
 C       -4.178090726     9.620917306     0.007882386
 C       -3.638503551     8.335513276     0.013495126
Si       -4.069863293    12.435994952    -0.040642571
 C       -5.729138204    12.338001588    -0.815074728
 C       -6.886747188    12.664069662    -0.226951333
 C       -8.195191716    12.571274067    -0.882045385
 C       -9.336812378    12.944230665    -0.155020449
 C      -10.597545900    12.875616509    -0.726728146
 C      -10.739770540    12.437041359    -2.053197315
 C       -9.609775752    12.058033287    -2.784511676
 C       -8.350558787    12.117559034    -2.193784195
 N      -12.082194583    12.398733796    -2.560154488
 C      -12.504937074    13.713088739    -3.091806348
 C      -12.343069792    11.284449216    -3.488603655
 C      -11.898718798    14.083750393    -4.459759966
 C      -11.940948979    15.602753762    -4.714115341
 N      -10.665709113    16.308179031    -4.466378586
 C      -10.236980028    16.284580912    -3.111117989
 C      -11.071774164    16.893593168    -2.154169600
 C      -10.706481587    16.901985200    -0.817442438
 C       -9.498457760    16.327722694    -0.395423871
 C       -8.662255828    15.750501989    -1.354624862
 C       -9.011862290    15.741008774    -2.700053485
 C       -9.635130865    15.981519057    -5.467360303
 C       -9.156978235    16.361855314     1.028764239
 C       -8.031671002    15.844438203     1.538280093
Si       -7.549585683    15.855963250     3.305378874
 C       -5.954297756    16.771355558     3.439620716
 C       -5.575508177    17.680387047     2.446371435
 C       -4.369992700    18.373917964     2.545155509
 C       -3.518534359    18.174402084     3.635449440
 C       -3.901290463    17.263366659     4.629082637
 C       -5.105067801    16.569748108     4.534280608
 C       -2.247999463    18.877818800     3.780301534
 C       -1.766719841    19.773487418     2.901628687
 C       -0.496743216    20.477969076     3.044378544
 C        0.356348484    20.281501600     4.133872035
 C        1.561452764    20.976546152     4.229940330
 C        1.936841180    21.891569514     3.240465291
 C        1.083245109    22.090652969     2.148111828
 C       -0.116227653    21.389712920     2.050917611
Si        3.532068448    22.813190221     3.365338463
 C        3.996605618    23.049901956     5.160715269
 C        4.854374539    21.820271400     2.495414917
 C        3.365012730    24.490919940     2.557547476
 C       -8.826316277    16.703552143     4.369906630
 C       -7.339535283    14.080853915     3.849679817
 C       -4.147550111    13.065675623     1.713410429
 C       -3.035978558    13.603760171    -1.069548233
 C       -0.617365428    -0.876346938    -1.531121941
 C       -0.612581202    -0.879032217     1.531832987
 H        1.265233914     2.739751950    -0.098479230
 H        0.323790734     4.978547021    -0.095488896
 H       -3.655594749     3.349950640     0.097451747
 H       -2.757084707     1.090176581     0.096996809
 H       -3.429116936     5.667156424     0.050509819
 H       -0.554748896     6.810952501    -0.087760771
 H       -0.341044314     9.136489175    -0.132348135
 H       -1.256815997    11.391206480    -0.129276547
 H       -5.269154169     9.710910803     0.043213110
 H       -4.309308998     7.479145679     0.056293562
 H       -5.702497150    11.976838133    -1.856456609
 H       -6.946726717    13.020422129     0.810341753
 H       -9.235273355    13.299046207     0.871885723
 H      -11.483459993    13.161663806    -0.161058048
 H       -9.707674441    11.710860069    -3.808607118
 H       -7.479503654    11.810874713    -2.773283979
 H      -13.430020053    11.232657156    -3.672837833
 H      -12.044770328    10.338288514    -3.003419780
 H      -11.828860390    11.354900788    -4.457891127
 H      -10.029481171    16.215321990    -6.471390893
 H       -9.306691013    14.930489267    -5.459174904
 H       -8.754763652    16.629322339    -5.306784994
 H      -11.999959854    17.363158714    -2.470904196
 H      -11.367189308    17.368650476    -0.087059323
 H       -7.715255061    15.294465090    -1.054240629
 H       -8.341134666    15.273750921    -3.415214265
 H       -9.919159117    16.853763695     1.646515696
 H       -7.285296235    15.358984620     0.885287395
 H       -6.200903017    17.875653994     1.568114398
 H       -4.096512581    19.076641948     1.759860301
 H       -3.251956355    17.093649117     5.485918047
 H       -5.350418390    15.870751166     5.338268544
 H       -1.685108108    18.624543160     4.683402194
 H       -2.330880516    20.026512956     1.998811993
 H        0.085043316    19.579124638     4.920081655
 H        2.187328497    20.778364040     5.104541657
 H        1.323323364    22.792984505     1.345024022
 H       -0.765138976    21.556991414     1.193067850
 H      -13.615334288    13.700377749    -3.152860431
 H      -12.236945690    14.486819801    -2.333308495
 H      -10.852253099    13.723594889    -4.509247271
 H      -12.435192455    13.552320402    -5.264959155
 H      -12.230492350    15.803887465    -5.770653330
 H      -12.728387618    16.083479742    -4.091614141
 H        2.266393898    -1.030501825     0.025699794
 H        2.274018092     0.531717770     0.879508523
 H        2.274819513     0.487305179    -0.904351591
 H        4.911287835    23.661267431     5.259300704
 H        4.188152192    22.086584549     5.664907253
 H        3.192146657    23.564283326     5.717172040
 H        4.971375518    20.820356448     2.950761652
 H        4.607632091    21.668531252     1.429218493
 H        5.834601805    22.326308867     2.543023336
 H        2.529518716    25.064725049     2.998167566
 H        4.283808944    25.090101189     2.687598823
 H        3.176940652    24.407042270     1.472971084
 H       -8.975645911    17.753993956     4.059735533
 H       -9.804750902    16.194529000     4.313162075
 H       -8.519644267    16.717741215     5.431089568
 H       -6.540149566    13.572509290     3.279541096
 H       -7.076778382    14.014533421     4.919770784
 H       -8.271519016    13.505390794     3.702042764
 H       -4.804956448    12.440833958     2.343750256
 H       -3.146871770    13.063817713     2.183397602
 H       -4.521185275    14.106133424     1.751467794
 H       -2.894706722    13.222973479    -2.096414964
 H       -3.514933882    14.597620481    -1.146170569
 H       -2.034662954    13.754167577    -0.628961583
 H       -0.272500234    -0.367221601    -2.449453825
 H       -0.255343883    -1.918649917    -1.571885592
 H       -1.720879990    -0.904252774    -1.564736737
 H       -0.269480469    -0.367311708     2.449480908
 H       -1.715715030    -0.913718261     1.566867541
 H       -0.244492563    -1.919228290     1.572780542

