139   

Si        0.000000000     0.000000000     0.000000000
 C        1.869142031     0.000000000     0.000000000
 C       -0.636634702     1.733097279     0.000000000
 C        0.036787468     2.738360695     0.703059609
 C       -0.443247390     4.047538772     0.703651397
 C       -1.608728654     4.380883885     0.007995223
 C       -2.284483608     3.372441889    -0.691025460
 C       -1.806773583     2.064243385    -0.694143666
 C       -2.149968651     5.735247232    -0.021163651
 C       -1.603728114     6.792975692     0.602304604
 C       -2.153686657     8.144375967     0.566604858
 C       -1.489094210     9.164681567     1.259840114
 C       -1.979521418    10.468804510     1.252262106
 C       -3.144346832    10.780574643     0.543831394
 C       -3.808319413     9.764298495    -0.153133133
 C       -3.316639433     8.460817536    -0.141817319
Si       -3.839002527    12.488625939     0.498610014
 C       -5.656698076    12.305636676     0.652495099
 C       -6.549843479    12.718247998    -0.255446762
 C       -8.000229917    12.562264982    -0.113142101
 C       -8.827103424    13.039833100    -1.140771652
 C      -10.205852322    12.918553234    -1.058338508
 C      -10.788564364    12.315141814     0.068181209
 C       -9.972081464    11.843848631     1.102089815
 C       -8.589839193    11.974920770     1.009500413
 N      -12.220403764    12.232612893     0.067939601
 C      -12.708095555    11.085312790    -0.731057799
 C      -12.831100698    12.299804155     1.407945780
 C      -12.442339399     9.705010674    -0.100471198
 C      -11.967003238     8.648102387    -1.113992507
 N      -10.527183025     8.664534997    -1.428152162
 C       -9.616180242     8.543555693    -0.365266547
 C      -10.008355831     7.971647328     0.863704102
 C       -9.101672482     7.856903381     1.906247455
 C       -7.759634409     8.224689008     1.745736686
 C       -7.361974730     8.751806458     0.513774890
 C       -8.264339622     8.910385429    -0.527955081
 C      -10.163800197     9.608365566    -2.498709406
 C       -6.848594852     8.081615716     2.881312951
 C       -5.547244866     8.396954731     2.856528748
Si       -4.410931227     8.216038012     4.280713321
 C       -5.340689511     7.540392541     5.725501746
 C       -5.521551797     8.281776357     6.897950364
 C       -6.228350314     7.744298417     7.971909815
 C       -6.774818941     6.457025914     7.897952636
 C       -6.594867861     5.719256883     6.723742132
 C       -5.886670059     6.252940542     5.648987724
 C       -7.506956353     5.936575775     9.048067046
 C       -8.075467388     4.720233009     9.104692561
 C       -8.808079395     4.196991484    10.253025261
 C       -8.990961067     4.930182099    11.429269801
 C       -9.698279703     4.390617246    12.502541926
 C      -10.246312277     3.105244933    12.420751805
 C      -10.065285563     2.369561763    11.243763673
 C       -9.352600452     2.908791232    10.175120125
Si      -11.180284321     2.405123142    13.850940230
 C      -12.283855449     3.725703139    14.581595767
 C      -12.238848029     0.966153520    13.299757599
 C       -9.949334826     1.823847649    15.131157377
 C       -3.056910613     7.002835319     3.857558687
 C       -3.670949433     9.891013861     4.648900264
 C       -3.232716383    13.492628073     1.951383742
 C       -3.342189338    13.304488795    -1.103268269
 C       -0.603312625    -0.910014109    -1.517698430
 C       -0.632376720    -0.852553884     1.537938343
 H        0.952771481     2.538272499     1.265900572
 H        0.100775446     4.811790244     1.255961894
 H       -3.195464765     3.610052192    -1.238177491
 H       -2.376914357     1.320632823    -1.257894033
 H       -3.072512010     5.845389488    -0.600708677
 H       -0.682597016     6.685225158     1.181524316
 H       -0.579693036     8.939354232     1.813650079
 H       -1.422396069    11.223433038     1.813122155
 H       -4.719010153     9.956897398    -0.732006963
 H       -3.852222820     7.685521412    -0.688446863
 H       -5.975649170    11.807292897     1.584155227
 H       -6.260637410    13.214404881    -1.191062766
 H       -8.384231659    13.515120670    -2.015370925
 H      -10.847212603    13.302270075    -1.849780733
 H      -10.406370356    11.369390177     1.978607605
 H       -7.966184706    11.592318754     1.820534470
 H      -13.917811665    12.449681802     1.286641293
 H      -12.434579272    13.181621042     1.941367104
 H      -12.671595762    11.410656766     2.036174904
 H      -10.981882871     9.699040070    -3.230190413
 H       -9.288463653     9.211630961    -3.045248584
 H       -9.917813251    10.617788654    -2.121700475
 H      -11.024627617     7.620501468     1.009977389
 H       -9.439516939     7.449015272     2.860043369
 H       -6.322019307     9.048937261     0.363864502
 H       -7.914630802     9.333956665    -1.464083787
 H       -7.343912480     7.685029409     3.779830081
 H       -5.064457551     8.791278720     1.947191621
 H       -5.120601901     9.292463989     7.010984225
 H       -6.356341582     8.335250540     8.876596340
 H       -7.008943644     4.716005990     6.640983786
 H       -5.777359219     5.628128266     4.756246817
 H       -7.569851716     6.621369400     9.898785560
 H       -8.011234092     4.035824292     8.253472907
 H       -8.578242490     5.933744092    11.516344420
 H       -9.805687466     5.011348224    13.396531483
 H      -10.470587639     1.361386012    11.122137992
 H       -9.220897203     2.319827961     9.269231769
 H      -13.799435621    11.235129572    -0.886504571
 H      -12.241436508    11.155302835    -1.738272499
 H      -11.684275840     9.805130646     0.705283580
 H      -13.355621410     9.342217292     0.404791210
 H      -12.203642082     7.627280669    -0.725657644
 H      -12.537897410     8.740113114    -2.064479532
 H        2.267853445    -1.028741605    -0.052614737
 H        2.279505522     0.467189436     0.912286103
 H        2.269033811     0.556003019    -0.867411012
 H      -12.904448834     3.320830587    15.400413782
 H      -12.968292453     4.140070473    13.819175402
 H      -11.698505982     4.566149676    14.993738283
 H      -12.927205482     1.262419618    12.487833339
 H      -11.625844056     0.125500516    12.930052863
 H      -12.855151876     0.582763653    14.132459317
 H       -9.306302504     2.652561049    15.477816806
 H      -10.457421710     1.401593373    16.015731446
 H       -9.284834164     1.041419197    14.722017660
 H       -3.470056905     6.024464188     3.551590297
 H       -2.437094565     7.371992828     3.020058799
 H       -2.390284190     6.829059894     4.720086930
 H       -4.452677627    10.644510688     4.850530964
 H       -2.996863054     9.855511998     5.521404377
 H       -3.080352332    10.251119902     3.784765235
 H       -3.443474160    12.984635295     2.910231060
 H       -2.145005820    13.672248589     1.897438624
 H       -3.728557465    14.480098470     1.986525568
 H       -3.688689234    12.726532558    -1.978979184
 H       -3.762052399    14.322923004    -1.185415703
 H       -2.243580775    13.392413547    -1.184341284
 H       -0.316078079    -0.379715787    -2.443604093
 H       -0.172435092    -1.925832195    -1.570514976
 H       -1.702066779    -1.018270465    -1.520935819
 H       -0.288432050    -0.338327978     2.453416094
 H       -1.736953265    -0.866430393     1.564430052
 H       -0.283664778    -1.898841006     1.590867183

