139   

Si        0.000000000     0.000000000     0.000000000
 C        1.869416450     0.000000000     0.000000000
 C       -0.619727010     1.738945896     0.000000000
 C       -0.000032725     2.705012069     0.801361110
 C       -0.459486395     4.021038330     0.809302452
 C       -1.548857904     4.402097846     0.020489546
 C       -2.169977777     3.433489727    -0.777899297
 C       -1.713485938     2.117480026    -0.787304704
 C       -2.063963920     5.766545715    -0.003329975
 C       -1.561137384     6.786545780     0.713361311
 C       -2.079866809     8.149891663     0.686219476
 C       -1.460994559     9.120450470     1.484330396
 C       -1.921319010    10.434907054     1.491088596
 C       -3.024075350    10.800035731     0.711210058
 C       -3.648706155     9.831815737    -0.082141721
 C       -3.178120550     8.520071643    -0.095229546
Si       -3.648821035    12.532250898     0.705584536
 C       -5.475197205    12.484304071     0.535768799
 C       -6.148425245    13.047957609    -0.475106122
 C       -7.605613267    13.019135042    -0.625980927
 C       -8.168289991    13.656681751    -1.742379331
 C       -9.539644178    13.664633232    -1.941584525
 C      -10.384436487    13.017616745    -1.023503204
 C       -9.831590285    12.378238514     0.091978739
 C       -8.453065624    12.385968039     0.286363667
 N      -11.786311488    13.077030195    -1.309019605
 C      -12.184091429    12.141033835    -2.383555083
 C      -12.657838865    12.992814774    -0.123643335
 C      -12.163670992    10.658028194    -1.969309601
 C      -11.616665713     9.728512774    -3.067636646
 N      -10.151871501     9.579590621    -3.101273222
 C       -9.505531067     9.101301966    -1.950318066
 C      -10.222673420     8.436298046    -0.933636189
 C       -9.568606682     7.970297428     0.196537033
 C       -8.175874529     8.049700883     0.314376119
 C       -7.459625394     8.673156677    -0.712873540
 C       -8.104215808     9.201012767    -1.821627655
 C       -9.459227342    10.642569927    -3.848622232
 C       -7.541286805     7.541413793     1.530836921
 C       -6.221871430     7.563751369     1.755416296
Si       -5.390977785     6.938434147     3.262318842
 C       -4.519226462     8.403294051     3.967783014
 C       -5.191783595     9.630797827     4.035539434
 C       -4.557461920    10.751324032     4.563046469
 C       -3.236006984    10.674852126     5.024088964
 C       -2.567180668     9.450665198     4.948881822
 C       -3.201499021     8.324172229     4.424819864
 C       -2.614309030    11.877181993     5.568643265
 C       -1.360253076    11.941221638     6.047118401
 C       -0.742629491    13.146069743     6.590833982
 C       -1.414741422    14.369562786     6.664649389
 C       -0.786609570    15.497027107     7.191915383
 C        0.534008268    15.428487803     7.649766562
 C        1.209652110    14.204416489     7.575394225
 C        0.577191372    13.077764283     7.055173501
Si        1.358698031    16.926161855     8.346668817
 C        0.790953225    18.448545843     7.421722457
 C        0.890814534    17.068524311    10.150059779
 C        3.215370205    16.777238896     8.186648280
 C       -6.620433947     6.317768498     4.526070910
 C       -4.221084298     5.560470258     2.818701688
 C       -3.225614933    13.395781897     2.304513132
 C       -2.852010346    13.433034068    -0.724536761
 C       -0.607703301    -0.910849539    -1.515007531
 C       -0.635625217    -0.848731111     1.538858725
 H        0.856271598     2.467564584     1.438690368
 H        0.041213968     4.753894300     1.439563224
 H       -3.021268470     3.708485137    -1.398683549
 H       -2.238393673     1.405963170    -1.430657235
 H       -2.920833067     5.920392446    -0.667131594
 H       -0.703241861     6.635341577     1.374612879
 H       -0.611705207     8.849409165     2.107908062
 H       -1.401794204    11.150118722     2.135713327
 H       -4.516068901    10.067780708    -0.707630780
 H       -3.675455583     7.781834404    -0.722406033
 H       -5.994171574    11.940548682     1.341421614
 H       -5.648448113    13.590066385    -1.289426918
 H       -7.521871444    14.161551487    -2.459910487
 H       -9.974389308    14.181514904    -2.795150654
 H      -10.468692608    11.864081207     0.806454185
 H       -8.036322647    11.873859750     1.155633706
 H      -13.685110797    13.259085416    -0.427018161
 H      -12.330190612    13.741637944     0.618950810
 H      -12.684773027    12.005984588     0.362537421
 H      -10.092799753    11.018549965    -4.667027035
 H       -8.550270100    10.220533037    -4.315708327
 H       -9.165753215    11.497466310    -3.212407539
 H      -11.294487723     8.289376192    -1.015691431
 H      -10.152912060     7.505750037     0.991191619
 H       -6.373352310     8.759285519    -0.641239693
 H       -7.513739180     9.695136577    -2.587115739
 H       -8.258567916     7.127105825     2.250806779
 H       -5.520892121     7.986891220     1.015408323
 H       -6.218773108     9.750125519     3.674622782
 H       -5.097308821    11.695118947     4.616149745
 H       -1.540784452     9.365839420     5.299529126
 H       -2.629331225     7.393268392     4.385350514
 H       -3.257175771    12.762812472     5.574597900
 H       -0.718020434    11.055955057     6.048831441
 H       -2.441042729    14.451377283     6.310993690
 H       -1.365261074    16.424401010     7.226478944
 H        2.242185712    14.090638409     7.916928521
 H        1.118535954    12.134654666     7.008799761
 H      -13.203692780    12.436401638    -2.716681879
 H      -11.512836057    12.317846777    -3.252695918
 H      -11.550152416    10.540682349    -1.050371293
 H      -13.180214949    10.333508266    -1.683782017
 H      -12.046926574     8.705141330    -2.940282352
 H      -11.960109390    10.067522084    -4.070326628
 H        2.269251960    -1.028454321    -0.046908773
 H        2.279173868     0.473735350     0.909063501
 H        2.268308744     0.551934908    -0.870587437
 H        1.321373330    19.351100615     7.773894936
 H       -0.290326582    18.628380954     7.553133062
 H        0.983219522    18.351910746     6.337739716
 H       -0.202909500    17.161347198    10.275985344
 H        1.212588128    16.178067283    10.719793662
 H        1.357771675    17.952338369    10.619084173
 H        3.514848191    16.616157890     7.135275623
 H        3.720716323    17.694474632     8.538292723
 H        3.611492398    15.934911303     8.780410212
 H       -7.338913248     7.105660158     4.813067253
 H       -7.196830882     5.459764535     4.137757257
 H       -6.110008864     5.985935982     5.447913268
 H       -3.416377444     5.912516944     2.145523425
 H       -3.739978932     5.128177204     3.713314154
 H       -4.746102627     4.739891734     2.296087418
 H       -3.524795037    12.785816403     3.177700986
 H       -2.139460089    13.579897232     2.389611047
 H       -3.734998127    14.372253996     2.384223900
 H       -3.087617625    12.950820573    -1.689800690
 H       -3.188901539    14.482949215    -0.779489924
 H       -1.751528461    13.442764454    -0.623783914
 H       -0.311288423    -0.389288093    -2.442981591
 H       -0.188581768    -1.931930721    -1.560904764
 H       -1.707786461    -1.006306219    -1.520749140
 H       -0.288554785    -0.336391796     2.453942624
 H       -1.740306428    -0.856404419     1.565347295
 H       -0.292920285    -1.896970372     1.591812272

