139   

Si        0.000000000     0.000000000     0.000000000
 C        1.869542239     0.000000000     0.000000000
 C       -0.625251594     1.737692268     0.000000000
 C        0.087220315     2.749560524    -0.653004081
 C       -0.383509426     4.062072920    -0.653935048
 C       -1.580391497     4.392152707    -0.011845051
 C       -2.295424649     3.376845232     0.636602135
 C       -1.825451499     2.065720576     0.642561522
 C       -2.111716877     5.751101087     0.013361353
 C       -1.524499902     6.813073905    -0.563959866
 C       -2.056497234     8.171624502    -0.538268017
 C       -3.253484275     8.500220147     0.104202563
 C       -3.725443879     9.812326464     0.104091095
 C       -3.016002906    10.823444811    -0.552615028
 C       -1.817178584    10.496939643    -1.198902137
 C       -1.342116800     9.187902303    -1.186383648
Si       -3.637905981    12.560935298    -0.554638372
 C       -2.886168072    13.458233862     0.856083782
 C       -2.029097727    12.903580152     1.723259485
 C       -1.421484396    13.608354644     2.853887819
 C       -0.537343759    12.902898443     3.685834464
 C        0.065753920    13.519277062     4.768991434
 C       -0.234287845    14.862227543     5.077647232
 C       -1.115858350    15.570985148     4.248347253
 C       -1.681716213    14.950187883     3.139075290
 N        0.418321706    15.431363484     6.199456479
 C        0.143110637    14.769831647     7.490597117
 C        0.417110768    16.899810965     6.274091017
 C       -1.087539824    15.269425757     8.267748765
 C       -2.437155867    14.995791187     7.578155144
 N       -2.920699746    13.609037645     7.654968335
 C       -2.976541275    12.992254263     8.908317137
 C       -3.278944116    13.759657150    10.056179317
 C       -3.337380693    13.160945164    11.303608520
 C       -3.146524076    11.780262246    11.458051831
 C       -2.877431380    11.018371318    10.317135842
 C       -2.798984036    11.602021920     9.060494487
 C       -2.585826198    12.774308534     6.494905302
 C       -3.218610089    11.197970778    12.798780396
 C       -3.052367299     9.894815714    13.060732978
Si       -3.133201482     9.120477710    14.718022888
 C       -4.490552960     7.870206543    14.689777490
 C       -5.629348050     8.098820289    13.906557734
 C       -6.661681663     7.165196071    13.874808907
 C       -6.585504462     5.985860067    14.627940420
 C       -5.449302368     5.762968924    15.410716152
 C       -4.411757129     6.694664907    15.442418930
 C       -7.693501542     5.038552819    14.560936017
 C       -7.746283729     3.873003410    15.227631311
 C       -8.855491417     2.927179468    15.159048011
 C       -9.990797297     3.152058175    14.375596261
 C      -11.028135554     2.220760075    14.339412404
 C      -10.948188268     1.036296504    15.079323259
 C       -9.810613427     0.807601655    15.863968162
 C       -8.780051860     1.743418947    15.904915456
Si      -12.317878842    -0.200875286    15.035944620
 C      -13.256165084    -0.068779018    13.424282693
 C      -11.619713942    -1.928547125    15.188512811
 C      -13.468621209     0.146923067    16.466493829
 C       -1.488715841     8.300292090    15.056841071
 C       -3.506493937    10.370470348    16.053957335
 C       -3.160662552    13.415859912    -2.145462316
 C       -5.496534962    12.589562828    -0.369201727
 C       -0.634292506    -0.852141140    -1.536975377
 C       -0.606903549    -0.903333242     1.519744188
 H        1.028050448     2.552912823    -1.174644376
 H        0.192383683     4.831625035    -1.164999478
 H       -3.230098989     3.611813361     1.142823263
 H       -2.425880378     1.317052273     1.166845636
 H       -3.057515664     5.861947004     0.552284801
 H       -0.579494676     6.701795360    -1.103768758
 H       -3.828850782     7.729698079     0.614288937
 H       -4.665082568    10.008506832     0.628717145
 H       -1.219842215    11.245872501    -1.727144536
 H       -0.406605666     8.953740553    -1.691155010
 H       -3.194149013    14.510542810     0.944282750
 H       -1.710095195    11.852858053     1.650094049
 H       -0.307922509    11.858764937     3.466630700
 H        0.785051354    12.975999145     5.379143549
 H       -1.359450269    16.608241088     4.456696448
 H       -2.351770348    15.523024445     2.497070596
 H        1.090669986    17.216192280     7.089866186
 H       -0.573882037    17.347905755     6.445929070
 H        0.831150882    17.308534042     5.334541778
 H       -2.631313060    13.373931480     5.566612937
 H       -3.340992471    11.973344395     6.391069886
 H       -1.583638713    12.318551140     6.553810323
 H       -3.470483288    14.824241594     9.964704719
 H       -3.552534705    13.775701116    12.178221005
 H       -2.726386619     9.941052686    10.408402404
 H       -2.583978939    10.973027181     8.202690808
 H       -3.425300024    11.939091398    13.582023747
 H       -2.846405755     9.174765463    12.252043556
 H       -5.741654081     9.001263429    13.295797192
 H       -7.537172780     7.356824461    13.256943804
 H       -5.364765576     4.854653563    16.004225206
 H       -3.546997426     6.464491687    16.070373766
 H       -8.516683499     5.343991090    13.907931070
 H       -6.923842293     3.566770621    15.880666793
 H      -10.075318726     4.062815661    13.785203630
 H      -11.891409655     2.454678640    13.710261838
 H       -9.692087595    -0.099765787    16.462582416
 H       -7.905294329     1.548552699    16.522704873
 H        0.058027996    13.671714053     7.329504944
 H        1.054244177    14.919186668     8.119456993
 H       -1.079381727    14.793999943     9.271806014
 H       -0.997417515    16.354442758     8.462514329
 H       -3.222447600    15.645670350     8.035267603
 H       -2.385601306    15.298418040     6.506807017
 H        2.268947185    -1.028078557     0.060619754
 H        2.269112732     0.562686137     0.863248319
 H        2.279638810     0.459537805    -0.916189091
 H      -14.038653706    -0.845166835    13.353694786
 H      -12.582819150    -0.196828305    12.557475132
 H      -13.754097522     0.910953382    13.318922226
 H      -10.878880365    -2.131271379    14.393899508
 H      -11.117759160    -2.083993572    16.159372186
 H      -12.415348339    -2.689738773    15.102523165
 H      -13.897284042     1.163133076    16.399407821
 H      -14.308568890    -0.569176745    16.491290272
 H      -12.940079726     0.076715180    17.434177307
 H       -1.285475719     7.491287736    14.332223902
 H       -0.659932821     9.027625327    14.980888961
 H       -1.452779084     7.861200944    16.068791590
 H       -4.473785036    10.874231167    15.874746247
 H       -3.566620814     9.889555058    17.046819181
 H       -2.725261647    11.149230617    16.107070174
 H       -2.064576180    13.514307195    -2.242912708
 H       -3.525130710    12.853525170    -3.024245674
 H       -3.588446613    14.432687826    -2.200249103
 H       -5.815199643    12.187512802     0.609292206
 H       -5.892847109    13.617703034    -0.446385009
 H       -5.984857320    11.985172388    -1.154964660
 H       -0.286805197    -0.341447709    -2.453050565
 H       -0.290360373    -1.900173809    -1.587560223
 H       -1.738864596    -0.861057946    -1.564912836
 H       -0.315855204    -0.372069948     2.444120059
 H       -1.706293141    -1.004805519     1.524797382
 H       -0.182008672    -1.921537167     1.575049873

