139   

Si        0.000000000     0.000000000     0.000000000
 C        1.869219871     0.000000000     0.000000000
 C       -0.596710573     1.747042200     0.000000000
 C       -0.138905670     2.635098413    -0.981038596
 C       -0.576531132     3.958315525    -0.999503378
 C       -1.482407906     4.424816274    -0.041912540
 C       -1.940317611     3.534347620     0.937224950
 C       -1.503982933     2.211243893     0.958814689
 C       -1.967826091     5.800871237    -0.022224706
 C       -1.607792181     6.751809617    -0.900752572
 C       -2.093750599     8.127648025    -0.880276863
 C       -1.634875467     9.018612669    -1.859312649
 C       -2.071178434    10.341049612    -1.879131988
 C       -2.974564576    10.803476751    -0.914853908
 C       -3.434126989     9.916826225     0.064551796
 C       -2.998248975     8.592692582     0.079063619
Si       -3.558172498    12.552278449    -0.932477729
 C       -5.331268347    12.538738202    -0.457488442
 C       -5.854492815    13.166657274     0.603168505
 C       -7.276217885    13.139901931     0.960871482
 C       -7.694251417    13.842663796     2.101200360
 C       -9.026489285    13.850750608     2.484689003
 C       -9.977032823    13.138589582     1.733242470
 C       -9.564752317    12.409999391     0.612386783
 C       -8.220992463    12.394804025     0.249545260
 N      -11.329752646    13.200626229     2.199479080
 C      -11.987890949    14.480017196     1.848632164
 C      -12.149227126    12.023562263     1.860861923
 C      -12.347057091    14.634775111     0.357804094
 C      -12.129754720    16.062213220    -0.178572936
 N      -10.748708140    16.380537126    -0.603655800
 C      -10.137661060    15.424114848    -1.445407605
 C      -10.888154071    14.840689363    -2.488206494
 C      -10.311591577    13.900089055    -3.327520507
 C       -8.973887143    13.513061343    -3.171112595
 C       -8.223073057    14.125364903    -2.163647505
 C       -8.777003225    15.091519354    -1.334946334
 C       -9.914389177    16.905992742     0.491524363
 C       -8.399210118    12.516062905    -4.077373803
 C       -7.131181049    12.093811869    -3.994009280
Si       -6.303238604    10.860270031    -5.061976085
 C       -4.884217900    11.732132398    -5.857989865
 C       -5.065591070    13.009577695    -6.403065619
 C       -4.001528301    13.675390261    -7.005569552
 C       -2.731274205    13.086713972    -7.069746534
 C       -2.553247401    11.814006868    -6.520749188
 C       -3.618057827    11.142506617    -5.920791388
 C       -1.647387352    13.823576113    -7.711243381
 C       -0.388827819    13.370818634    -7.841838105
 C        0.696617324    14.105831601    -8.482891652
 C        0.523272807    15.379343845    -9.033543710
 C        1.588606564    16.045566405    -9.636816317
 C        2.854739322    15.451149448    -9.703368241
 C        3.030455087    14.176463811    -9.153715319
 C        1.963473740    13.512721049    -8.551647380
Si        4.246200850    16.358561943   -10.508793028
 C        4.465526608    18.005698231    -9.652955060
 C        5.835926364    15.383476085   -10.385623054
 C        3.820977800    16.624243703   -12.309158900
 C       -5.702145836     9.468939723    -3.970655653
 C       -7.434133755    10.194158007    -6.387204579
 C       -2.533923688    13.531068328     0.284521746
 C       -3.392954279    13.308951342    -2.629244602
 C       -0.639949959    -0.846427805    -1.538247324
 C       -0.613742514    -0.912210284     1.511388682
 H        0.568932559     2.328869306    -1.756569687
 H       -0.204844521     4.629559389    -1.771621842
 H       -2.645985634     3.876558458     1.692276713
 H       -1.895840582     1.563041859     1.747331061
 H       -2.673159656     6.025218430     0.783725821
 H       -0.902375915     6.527656306    -1.706167591
 H       -0.931131748     8.675853170    -2.615240002
 H       -1.684333042    10.990077181    -2.670730375
 H       -4.145928082    10.223675492     0.838039155
 H       -3.371261229     7.919632097     0.848980065
 H       -5.963621298    11.931674641    -1.127759284
 H       -5.249416764    13.769013801     1.293500338
 H       -6.965110892    14.394649873     2.693730529
 H       -9.344967287    14.388082911     3.375948236
 H      -10.284188299    11.852148596     0.018840027
 H       -7.916496036    11.805607993    -0.618578564
 H      -13.086471088    12.073995055     2.441740951
 H      -11.615906848    11.109273716     2.175814237
 H      -12.406256948    11.929231302     0.795106865
 H      -10.486812202    17.643227870     1.077330371
 H       -9.051587642    17.443452933     0.056473184
 H       -9.536157967    16.127220822     1.176661556
 H      -11.923464992    15.131998037    -2.639586038
 H      -10.912255165    13.457707508    -4.122042570
 H       -7.169267707    13.865987492    -2.028678917
 H       -8.148753888    15.545352309    -0.573154038
 H       -9.106750862    12.143504018    -4.826715116
 H       -6.452899453    12.505871893    -3.226060834
 H       -6.032989481    13.521553720    -6.371666640
 H       -4.160075179    14.665997764    -7.427740317
 H       -1.576909561    11.334663128    -6.557320878
 H       -3.418446365    10.149520640    -5.507039568
 H       -1.928453306    14.807620981    -8.097900405
 H       -0.108152631    12.386037081    -7.456559647
 H       -0.451532978    15.862506780    -8.994439292
 H        1.391464709    17.039307959   -10.049121406
 H        3.995760193    13.663499183    -9.176530656
 H        2.120551698    12.521457995    -8.130369756
 H      -12.904853189    14.557159342     2.474431877
 H      -11.320126693    15.306117036     2.178668031
 H      -11.750217181    13.919801021    -0.247271942
 H      -13.399172442    14.339145116     0.194492170
 H      -12.784876878    16.226729734    -1.067775824
 H      -12.455983390    16.812784755     0.573432547
 H        2.271323984    -1.027907340     0.032509202
 H        2.268335723     0.541666702     0.876998450
 H        2.276307226     0.488554288    -0.902698745
 H        5.299331440    18.579819872   -10.093957976
 H        4.685065622    17.871355106    -8.578094933
 H        3.555746401    18.627008691    -9.728371784
 H        6.111188189    15.188600280    -9.333751346
 H        5.754424935    14.408642395   -10.898561200
 H        6.675586094    15.930889160   -10.850346993
 H        2.892557988    17.211455187   -12.423504610
 H        4.625508873    17.165109977   -12.837718602
 H        3.668142263    15.661577694   -12.830106414
 H       -4.939889495     9.813374079    -3.246396733
 H       -6.531918094     9.032397207    -3.385079676
 H       -5.250601362     8.652668674    -4.560956435
 H       -7.798130117    10.999045270    -7.050794453
 H       -6.915118718     9.455113102    -7.023916526
 H       -8.316916412     9.693845437    -5.951047326
 H       -2.611870801    13.117343726     1.305710445
 H       -1.464108263    13.516259107     0.007970654
 H       -2.851178199    14.588084601     0.323163366
 H       -3.734379827    12.625852819    -3.429032170
 H       -3.985898926    14.237782471    -2.719605045
 H       -2.343138202    13.567747101    -2.856713720
 H       -0.289895609    -0.339220529    -2.454802789
 H       -0.304591679    -1.897212615    -1.588942234
 H       -1.744861778    -0.847299470    -1.564016532
 H       -0.277485797    -0.422620896     2.442934657
 H       -1.716787925    -0.962230018     1.536292326
 H       -0.236741355    -1.950566828     1.529863334

