139   

Si        0.000000000     0.000000000     0.000000000
 C        1.869508190     0.000000000     0.000000000
 C       -0.647178806     1.728902396     0.000000000
 C        0.169039578     2.809817922     0.347431821
 C       -0.334864941     4.110439252     0.342581395
 C       -1.665317498     4.359874192    -0.004260586
 C       -2.483012609     3.275020814    -0.348238197
 C       -1.982622147     1.975757306    -0.345142486
 C       -2.235821715     5.702932288    -0.023331641
 C       -1.561342577     6.824102041     0.283366549
 C       -2.129977916     8.167925421     0.264899724
 C       -3.460283122     8.418873777    -0.081742200
 C       -3.962672425     9.720319388    -0.086081361
 C       -3.139656569    10.798365712     0.249700129
 C       -1.804589899    10.551263170     0.597451498
 C       -1.308809516     9.250828030     0.607324799
Si       -3.766441929    12.535237768     0.255874496
 C       -2.396424482    13.575066716    -0.377354495
 C       -1.803758050    14.573109260     0.289209004
 C       -0.709119715    15.382337279    -0.253779176
 C       -0.168381965    16.403068089     0.543325187
 C        0.867206358    17.197071915     0.078400835
 C        1.413611035    16.959791307    -1.194544285
 C        0.886125682    15.940650594    -1.994322691
 C       -0.174132349    15.169612523    -1.525704401
 N        2.480454652    17.826327294    -1.597442860
 C        3.750962867    17.475916458    -0.923681930
 C        2.631160639    17.986026808    -3.054532675
 C        4.370327747    16.140980068    -1.385050288
 C        5.271269170    15.513765229    -0.303915409
 N        4.652350352    14.399431695     0.441232364
 C        3.580027755    14.730342188     1.298252752
 C        3.717116314    15.833852616     2.166330229
 C        2.683531457    16.184774770     3.019664824
 C        1.514920851    15.413949185     3.097374542
 C        1.399767973    14.296354271     2.265684037
 C        2.413218158    13.950474206     1.380925171
 C        4.476724957    13.196201541    -0.390553593
 C        0.451411563    15.827332761     4.015152143
 C       -0.702458288    15.164752700     4.166736163
Si       -2.070071654    15.628626670     5.295499450
 C       -3.534272002    15.893898647     4.200603052
 C       -3.350664303    16.497898059     2.951124815
 C       -4.433328609    16.712651293     2.101045751
 C       -5.724040707    16.332475727     2.481248323
 C       -5.906400680    15.734099357     3.734890351
 C       -4.825393625    15.520642238     4.588189817
 C       -6.885016974    16.538723337     1.622340649
 C       -6.837572273    17.100401735     0.402433014
 C       -7.994444895    17.309592352    -0.461522144
 C       -9.289451597    16.936399008    -0.091616740
 C      -10.366742919    17.155435892    -0.949493534
 C      -10.172633229    17.758296553    -2.197007674
 C       -8.875431622    18.131651531    -2.570523497
 C       -7.800478806    17.905968470    -1.714393762
Si      -11.597224729    18.049584743    -3.335023745
 C      -13.168781986    18.282663494    -2.349555720
 C      -11.292779907    19.583256486    -4.359735664
 C      -11.768300097    16.563496209    -4.454675113
 C       -2.365822951    14.216141992     6.478250645
 C       -1.714229780    17.200368215     6.233398649
 C       -5.248637056    12.762743950    -0.851793996
 C       -4.213576819    12.958800251     2.014169313
 C       -0.605319382    -0.889632841    -1.528868928
 C       -0.628637735    -0.865384817     1.532115498
 H        1.217626134     2.678129514     0.628166795
 H        0.322438433     4.934475380     0.614654423
 H       -3.522610648     3.447107719    -0.621156439
 H       -2.668358795     1.170341385    -0.622336871
 H       -3.289437117     5.748465890    -0.313957818
 H       -0.507792917     6.777975455     0.574664711
 H       -4.118660359     7.595321454    -0.351602035
 H       -5.011180334     9.856007295    -0.364501299
 H       -1.115289279    11.359653372     0.865198554
 H       -0.270283465     9.075753945     0.882145577
 H       -2.081381314    13.306405859    -1.398885563
 H       -2.099352111    14.865622000     1.306849419
 H       -0.563293138    16.577477835     1.546417133
 H        1.268892341    18.000970325     0.693227922
 H        1.294748431    15.744839498    -2.980771956
 H       -0.578203063    14.383935254    -2.164654831
 H        3.344867334    18.806757567    -3.242817656
 H        1.660650076    18.289768135    -3.485047035
 H        2.984926145    17.089812870    -3.584754249
 H        5.403684845    13.000721952    -0.955525477
 H        3.641862222    13.263983044    -1.106924833
 H        4.312165146    12.323594928     0.267844516
 H        4.634883259    16.415471176     2.164900246
 H        2.794880027    17.062510239     3.656740297
 H        0.495926220    13.683306936     2.295524636
 H        2.270865198    13.088041018     0.736512259
 H        0.690975342    16.740552061     4.574659342
 H       -0.908655638    14.244378949     3.593709310
 H       -2.364467815    16.825533656     2.602977897
 H       -4.262750331    17.178091355     1.130706132
 H       -6.903556299    15.433758274     4.050589950
 H       -5.027727208    15.050954416     5.554034279
 H       -7.834652597    16.197853582     2.043798992
 H       -5.885502202    17.439861140    -0.018546144
 H       -9.468343634    16.469590351     0.875397481
 H      -11.355866880    16.842003598    -0.604321794
 H       -8.663239337    18.606356756    -3.532560000
 H       -6.799078699    18.201100860    -2.024050834
 H        4.462663169    18.312764129    -1.092357930
 H        3.550308564    17.447036552     0.173403239
 H        3.560789183    15.433228925    -1.654764693
 H        4.946861174    16.295819308    -2.313569154
 H        6.205011814    15.121108135    -0.769179422
 H        5.609601046    16.283753934     0.424504277
 H        2.267665059    -1.028433551    -0.064111548
 H        2.278269325     0.454309058     0.919706017
 H        2.270864586     0.564472519    -0.860858490
 H      -14.019089750    18.534522088    -3.008076258
 H      -13.062962902    19.102659503    -1.616208264
 H      -13.442592261    17.369613506    -1.792639839
 H      -11.112265530    20.463917009    -3.716821246
 H      -10.416408422    19.467690621    -5.021096729
 H      -12.161971367    19.813581737    -5.001249278
 H      -11.945100080    15.640510538    -3.873669677
 H      -12.612135323    16.683379090    -5.156610099
 H      -10.854301947    16.404093902    -5.054569244
 H       -2.643443620    13.289645951     5.943121540
 H       -1.457536538    13.994628851     7.068490866
 H       -3.174966416    14.445668559     7.193270083
 H       -1.531989102    18.049183996     5.549400945
 H       -2.563341828    17.480867367     6.882648797
 H       -0.825127239    17.092649676     6.879967824
 H       -5.033170135    12.463765311    -1.892678540
 H       -6.112484658    12.170013072    -0.503044235
 H       -5.566614551    13.822941800    -0.870441056
 H       -3.358193299    12.816979069     2.698950191
 H       -4.540285367    14.013674580     2.106264064
 H       -5.040203478    12.326708447     2.383275861
 H       -0.283911846    -0.366639021    -2.447959870
 H       -0.208914915    -1.919287010    -1.576462405
 H       -1.706940777    -0.957011651    -1.554071492
 H       -0.282872594    -0.356727844     2.450279225
 H       -1.732839491    -0.881311237     1.561613594
 H       -0.277574127    -1.911188544     1.577109267

