139   

Si        0.000000000     0.000000000     0.000000000
 C        1.871114592     0.000000000     0.000000000
 C       -0.633931901     1.732780677     0.000000000
 C        0.090282752     2.750650189    -0.629898138
 C       -0.385500337     4.060480912    -0.631859185
 C       -1.598330542     4.382381060    -0.015229336
 C       -2.325636508     3.360981229     0.607487679
 C       -1.851486416     2.051000376     0.613046876
 C       -2.126835031     5.742766842     0.002081063
 C       -1.510112246     6.795135933    -0.562031193
 C       -2.014435420     8.162773066    -0.559831557
 C       -3.221542695     8.522046936     0.045875161
 C       -3.660373465     9.844601861     0.020484267
 C       -2.899309141    10.839554689    -0.605767626
 C       -1.690803059    10.481483309    -1.212474405
 C       -1.256760800     9.157979588    -1.191314164
Si       -3.505554205    12.580139317    -0.623209617
 C       -4.045862296    13.122533273     1.039874417
 C       -4.022549790    12.384584850     2.157018327
 C       -4.468249943    12.870579544     3.464714991
 C       -4.397751980    12.005972507     4.568549378
 C       -4.807711010    12.421069797     5.824499193
 C       -5.351698651    13.709231752     6.003225592
 C       -5.429762574    14.573012515     4.901797851
 C       -4.974973910    14.157264544     3.654743049
 N       -5.755878168    14.082639984     7.313781214
 C       -6.759624588    13.166547477     7.900287659
 C       -6.119590798    15.498392670     7.498313495
 C       -8.022957576    12.978360414     7.033261370
 C       -8.359011071    11.482650957     6.886870221
 N       -9.351097069    11.122036144     5.858455882
 C       -8.805471021    10.793918592     4.570214527
 C       -7.759581341    11.478079909     3.943245564
 C       -7.314184787    11.067333895     2.691145509
 C       -7.882544694     9.958927772     2.052353339
 C       -8.924236919     9.276175265     2.692297520
 C       -9.387309911     9.686305146     3.934862635
 C      -10.482223603    12.061858096     5.748079578
 C       -7.381984700     9.560374967     0.731575867
 C       -7.861063924     8.516841421     0.043469553
Si       -7.327167007     7.917117180    -1.604508517
 C       -6.734930032     6.179238995    -1.397460682
 C       -6.628242186     5.597430594    -0.130428632
 C       -6.179686374     4.284383775     0.011703747
 C       -5.819407224     3.528862098    -1.106867750
 C       -5.916735387     4.117757591    -2.374933968
 C       -6.362983181     5.428643131    -2.520072155
 C       -5.344849208     2.152436646    -1.008988699
 C       -5.204595515     1.470365741     0.140415933
 C       -4.729559213     0.093654959     0.233908411
 C       -4.369512861    -0.656587049    -0.888732376
 C       -3.920184105    -1.970035991    -0.754541405
 C       -3.819262997    -2.563437210     0.508246035
 C       -4.179141165    -1.813138900     1.634979263
 C       -4.628400862    -0.502084037     1.498189589
Si       -3.223591259    -4.303414808     0.680971138
 C       -1.976432609    -4.682335507    -0.658966726
 C       -2.407080938    -4.533368227     2.347244244
 C       -4.691639388    -5.447648856     0.527850036
 C       -8.828739744     7.928901270    -2.718186764
 C       -5.975067087     8.938469943    -2.373976611
 C       -2.170503175    13.746012945    -1.210802309
 C       -4.985451512    12.673365582    -1.763032759
 C       -0.626627916    -0.855726964    -1.537004935
 C       -0.595999378    -0.888417218     1.530753151
 H        1.043345574     2.561055644    -1.130406250
 H        0.199176475     4.834565903    -1.125245752
 H       -3.278956870     3.587452492     1.082505017
 H       -2.468983053     1.292721947     1.106353003
 H       -3.089704662     5.858828089     0.508242929
 H       -0.550943428     6.666252044    -1.073048028
 H       -3.830320818     7.766363629     0.541809451
 H       -4.614812364    10.064230122     0.513039021
 H       -1.052675475    11.213370603    -1.714240540
 H       -0.314518423     8.897750554    -1.669668457
 H       -4.414941365    14.161355467     1.054669563
 H       -3.646366798    11.351633244     2.183851116
 H       -4.002233310    10.996803981     4.440680172
 H       -4.709859804    11.753416636     6.677528585
 H       -5.844718445    15.570883739     5.004305628
 H       -5.033968890    14.850924634     2.815198836
 H       -6.232244112    15.696889491     8.578604664
 H       -7.050134737    15.795700775     6.990877505
 H       -5.294354468    16.139733101     7.141738264
 H      -10.932413331    12.203243760     6.744172264
 H      -11.252023810    11.614243516     5.094396485
 H      -10.212220405    13.045533712     5.334239842
 H       -7.287524315    12.332353780     4.426478027
 H       -6.504145909    11.620333051     2.209156575
 H       -9.383787453     8.410083472     2.216552830
 H      -10.196101475     9.152140730     4.431241351
 H       -6.581149808    10.207929713     0.352244366
 H       -8.680836209     7.903378463     0.458647559
 H       -6.887219894     6.142292899     0.782889694
 H       -6.111146136     3.852114141     1.008055194
 H       -5.632707653     3.548563927    -3.258203743
 H       -6.409976043     5.837685035    -3.533037500
 H       -5.089940853     1.688208677    -1.966702718
 H       -5.456925511     1.933960456     1.098289907
 H       -4.434934848    -0.216906210    -1.882873172
 H       -3.656091698    -2.507011688    -1.670121362
 H       -4.121633531    -2.224087655     2.646530360
 H       -4.905152381     0.063382641     2.386182668
 H       -6.250677376    12.191724299     8.080489295
 H       -7.034742322    13.545826716     8.907966023
 H       -8.875373305    13.521173394     7.476194223
 H       -7.878900611    13.430789824     6.033467218
 H       -7.429407857    10.899148301     6.691649570
 H       -8.771761884    11.101447858     7.851698104
 H        2.268852342    -1.027581967     0.070989116
 H        2.270440007     0.571119121     0.857293294
 H        2.281203577     0.450326851    -0.920275882
 H       -1.549194285    -5.692848344    -0.532415689
 H       -1.138041623    -3.961660084    -0.637501430
 H       -2.428559075    -4.639049292    -1.665013298
 H       -1.593598183    -3.800297438     2.498452801
 H       -3.125683006    -4.411206426     3.176245894
 H       -1.966903337    -5.542118155     2.439804755
 H       -5.191113717    -5.333983830    -0.451114589
 H       -4.390526470    -6.505294503     0.627783720
 H       -5.447040820    -5.240796967     1.307189764
 H       -9.638923688     7.297533634    -2.311813665
 H       -9.231825049     8.950667786    -2.835602346
 H       -8.586848521     7.547665621    -3.725642759
 H       -5.022429799     8.846405582    -1.815238528
 H       -5.766716302     8.614603961    -3.409598707
 H       -6.238808716    10.010451510    -2.408144118
 H       -1.274334378    13.685756298    -0.566057474
 H       -1.856497764    13.517292605    -2.244340403
 H       -2.515463602    14.795151076    -1.195732118
 H       -5.821307973    12.052323650    -1.391371467
 H       -5.358019179    13.708368030    -1.856325548
 H       -4.730139080    12.317991990    -2.777166719
 H       -0.270281466    -0.352641188    -2.452707079
 H       -0.294461725    -1.907100461    -1.577882888
 H       -1.732886442    -0.851003421    -1.563586107
 H       -0.280970820    -0.362064944     2.448877249
 H       -1.700615300    -0.957325146     1.548206928
 H       -0.198154267    -1.916659473     1.579193892

