139   

Si        0.000000000     0.000000000     0.000000000
 C        1.868185484     0.000000000     0.000000000
 C       -0.552865595     1.761773236     0.000000000
 C       -0.687324777     2.469783847     1.198865402
 C       -1.105232478     3.800905542     1.196327118
 C       -1.385258356     4.455949763    -0.004660685
 C       -1.242735656     3.747275806    -1.205765939
 C       -0.830776918     2.417808243    -1.205526244
 C       -1.825198516     5.844014181    -0.074336052
 C       -2.018218091     6.665646253     0.971546578
 C       -2.461346494     8.050830959     0.835862411
 C       -2.718800772     8.624372364    -0.413627105
 C       -3.140803904     9.947854525    -0.520904920
 C       -3.300665806    10.737295199     0.622416436
 C       -3.042831249    10.169261944     1.876294315
 C       -2.634264278     8.840572078     1.980542818
Si       -3.860750702    12.488172666     0.456794299
 C       -2.903450759    13.515256562     1.633502315
 C       -3.426963989    14.246025538     2.626534952
 C       -2.633777349    15.058107899     3.552227853
 C       -3.293476150    15.782967367     4.555391856
 C       -2.585952741    16.565065730     5.454197746
 C       -1.176687487    16.589007137     5.418851760
 C       -0.513048343    15.858166746     4.420108307
 C       -1.239341904    15.127446695     3.487634121
 N       -0.494405502    17.402764618     6.356481955
 C       -0.876846174    17.190120049     7.768775990
 C        0.965611313    17.505123512     6.184571871
 C       -0.629048616    15.760962263     8.289236849
 C       -1.950072517    14.980224260     8.438870360
 N       -1.773460896    13.522754930     8.592299724
 C       -1.269786602    12.870330829     7.434368480
 C       -2.004467541    12.996839603     6.239637480
 C       -1.562196637    12.383065654     5.079976072
 C       -0.416603466    11.574278135     5.080648142
 C        0.290873096    11.427061613     6.275345042
 C       -0.123304534    12.063509385     7.441507492
 C       -1.130904068    13.162371615     9.867601599
 C        0.006677455    10.948926308     3.824864892
 C        1.083509248    10.161053068     3.719205856
Si        1.695875348     9.334453947     2.202901968
 C        1.649140375     7.534259753     2.614678318
 C        0.614305839     7.064392805     3.436145968
 C        0.537600255     5.717143070     3.773450795
 C        1.491056296     4.806401519     3.298239069
 C        2.518408569     5.276318204     2.476549487
 C        2.595891373     6.627115174     2.133924477
 C        1.363238443     3.405202489     3.682656164
 C        2.197038183     2.422498606     3.302446865
 C        2.053682284     1.025039070     3.697011969
 C        1.016056014     0.579261379     4.520858204
 C        0.914685457    -0.765734578     4.874853185
 C        1.858395065    -1.694116642     4.422631214
 C        2.904016645    -1.248569654     3.604560241
 C        3.000373812     0.094528673     3.249178127
Si        1.725611907    -3.474639418     4.890283672
 C        0.908225024    -3.640985380     6.562710074
 C        0.693246868    -4.333516302     3.590121637
 C        3.425564228    -4.248009385     4.963991739
 C        0.677502534     9.707603156     0.693110588
 C        3.457622708     9.888387717     1.908493855
 C       -3.525523382    13.135911692    -1.263292413
 C       -5.691563799    12.552550098     0.816938171
 C       -0.638450005    -0.884583059    -1.519266921
 C       -0.640084908    -0.873579964     1.520729510
 H       -0.470355601     2.011074945     2.168934681
 H       -1.197013914     4.333074927     2.142175687
 H       -1.455232895     4.239752531    -2.152569941
 H       -0.740060802     1.917455936    -2.172949431
 H       -2.003490884     6.202980656    -1.094429713
 H       -1.833401940     6.330081947     1.995111533
 H       -2.595215134     8.036153817    -1.321435450
 H       -3.330462654    10.332098006    -1.526798468
 H       -3.153247918    10.740153464     2.804232223
 H       -2.441238879     8.415646344     2.964751630
 H       -1.816105344    13.493837089     1.452630741
 H       -4.505365098    14.290406141     2.827403828
 H       -4.381279677    15.749914216     4.619243081
 H       -3.119251808    17.165398557     6.186775232
 H        0.571502323    15.843565259     4.366721651
 H       -0.700196578    14.581003830     2.711466874
 H        1.357798099    18.269365965     6.877415752
 H        1.188231999    17.857633864     5.161447885
 H        1.507361609    16.562678414     6.363851049
 H       -1.698462957    13.620456962    10.695784332
 H       -0.079213359    13.476404815     9.950953888
 H       -1.188079132    12.067494220    10.003993189
 H       -2.916120717    13.592002280     6.223484783
 H       -2.131689352    12.516399961     4.156654825
 H        1.187215243    10.806396929     6.306120360
 H        0.461129745    11.935972310     8.346981905
 H       -0.644316611    11.187340061     2.972572548
 H        1.712247740     9.943103506     4.599243538
 H       -0.154680220     7.732633653     3.839836158
 H       -0.268260558     5.371405733     4.417900266
 H        3.265531113     4.586720268     2.088795118
 H        3.417306755     6.937560772     1.483412143
 H        0.511282126     3.189234930     4.335343384
 H        3.049227621     2.633402030     2.650621834
 H        0.272458926     1.281961518     4.893223139
 H        0.079006803    -1.054567744     5.518279161
 H        3.671597619    -1.927751774     3.223836220
 H        3.825760066     0.422299912     2.619120447
 H       -0.312900285    17.925031774     8.386503747
 H       -1.947266555    17.473952073     7.881287119
 H        0.044270254    15.214009512     7.598887330
 H       -0.095911153    15.792144878     9.254801343
 H       -2.521652402    15.350110288     9.318265421
 H       -2.599468464    15.156400752     7.549195756
 H        2.271220397    -1.019653944     0.124790689
 H        2.256104248     0.619189036     0.830629454
 H        2.273257309     0.413392554    -0.939689514
 H        0.881749703    -4.695492737     6.890693159
 H       -0.133025957    -3.274216683     6.549737580
 H        1.454505564    -3.067978018     7.333852672
 H       -0.323051143    -3.903317577     3.535320155
 H        1.147243799    -4.235820162     2.587468640
 H        0.588533654    -5.411138951     3.806246877
 H        4.085004623    -3.699152579     5.660592784
 H        3.373036890    -5.294558862     5.313502628
 H        3.916991677    -4.255501962     3.975421212
 H       -0.396222240     9.487940564     0.856891998
 H        0.753727962    10.771251069     0.405567312
 H        1.000755694     9.101108246    -0.172052765
 H        4.115755463     9.611174819     2.750734061
 H        3.875304309     9.434630514     0.992999699
 H        3.514141791    10.985345392     1.790760928
 H       -2.464421934    13.013830791    -1.545003621
 H       -4.136339236    12.615079364    -2.021038367
 H       -3.763208771    14.213217721    -1.333725595
 H       -5.917240274    12.187518936     1.835393204
 H       -6.085037242    13.580770246     0.731837597
 H       -6.259695317    11.920705322     0.110502261
 H       -0.225006426    -0.455917533    -2.448265549
 H       -0.365927453    -1.954542808    -1.499448719
 H       -1.739596350    -0.823396017    -1.583667130
 H       -0.183303052    -0.463213233     2.442386775
 H       -1.735082311    -0.773902909     1.615771605
 H       -0.400508774    -1.951265047     1.495283906

