139   

Si        0.000000000     0.000000000     0.000000000
 C        1.869470686     0.000000000     0.000000000
 C       -0.637389541     1.732980176     0.000000000
 C        0.116593196     2.774027187    -0.551932692
 C       -0.368995831     4.081243207    -0.549604617
 C       -1.620657046     4.377337136    -0.002875814
 C       -2.376816426     3.332810827     0.545112640
 C       -1.893450332     2.026774172     0.546030153
 C       -2.169261902     5.729357960     0.021717595
 C       -1.547765600     6.816047035    -0.466809861
 C       -2.096914856     8.167800635    -0.441908984
 C       -3.349002315     8.462598430     0.105251783
 C       -3.835726281     9.769309963     0.108211596
 C       -3.077545762    10.809719919    -0.437779620
 C       -1.823154240    10.518336360    -0.988247901
 C       -1.340896800     9.212081012    -0.990510679
Si       -3.708610746    12.544501483    -0.441080305
 C       -2.248441801    13.645696032    -0.487939120
 C       -1.969628824    14.541759092    -1.443187056
 C       -0.783241066    15.399045134    -1.429604951
 C       -0.585747320    16.305234622    -2.480839431
 C        0.522079300    17.136406586    -2.510455416
 C        1.472650061    17.092962823    -1.468490370
 C        1.286884668    16.170576717    -0.426015466
 C        0.187546233    15.321795221    -0.427588464
 N        2.590475133    17.954560251    -1.530712325
 C        2.295119525    19.351312187    -1.915558394
 C        3.568061159    17.838670512    -0.436537065
 C        1.111455301    20.003706752    -1.176714337
 C        1.499400389    20.574625166     0.200506505
 N        0.471863873    20.393045089     1.248958126
 C        0.372036141    19.052559697     1.724298066
 C        1.477243256    18.548800172     2.436419261
 C        1.453534387    17.254453069     2.929330850
 C        0.320234312    16.441641059     2.769918235
 C       -0.783597958    16.957827724     2.087148808
 C       -0.766986095    18.251252681     1.572612758
 C       -0.807101438    21.039587826     0.907898698
 C        0.360846791    15.082757751     3.314871829
 C       -0.639320115    14.194600103     3.240553264
Si       -0.536693662    12.501149955     3.941488037
 C        1.122210013    12.284196966     4.721347411
 C        2.128179539    11.545977729     4.087248813
 C        3.375442398    11.390597737     4.687714138
 C        3.652644813    11.979746898     5.927961280
 C        2.648630350    12.723463142     6.555299920
 C        1.397762015    12.875845627     5.959536678
 C        4.974119459    11.788359422     6.516661181
 C        5.365038413    12.293151956     7.699153641
 C        6.686523132    12.101804550     8.287932619
 C        7.690835958    11.358579528     7.661686789
 C        8.940238009    11.201366261     8.260911419
 C        9.216600330    11.793521402     9.497887502
 C        8.212040081    12.539781164    10.126934978
 C        6.962526530    12.688033388     9.530246602
Si       10.869657855    11.587550194    10.294292798
 C       12.185575911    11.341807464     8.989246221
 C       11.289334373    13.108313000    11.297513046
 C       10.799975266    10.091051065    11.410941696
 C       -1.879154439    12.289324337     5.222941426
 C       -0.782354484    11.247364797     2.581629254
 C       -4.820653783    12.783689729    -1.919476303
 C       -4.646300948    12.901143116     1.135850877
 C       -0.631485933    -0.857595242    -1.535192483
 C       -0.604144331    -0.899882633     1.523250483
 H        1.102037183     2.604769660    -0.994694125
 H        0.239484103     4.873681287    -0.981892890
 H       -3.354458825     3.541308534     0.975977193
 H       -2.528399804     1.254338974     0.988737365
 H       -3.159147618     5.812538964     0.480350854
 H       -0.558558812     6.732643168    -0.926430385
 H       -3.956892418     7.669095609     0.535948062
 H       -4.820857837     9.939144970     0.550624258
 H       -1.187734809    11.295198101    -1.428088376
 H       -0.364448468     9.003157496    -1.423891469
 H       -1.575169141    13.510374310     0.376386912
 H       -2.615545045    14.704623407    -2.314978128
 H       -1.314253908    16.361173544    -3.289726121
 H        0.664275117    17.816014413    -3.345685112
 H        1.988519696    16.112504894     0.402695175
 H        0.076384053    14.606611620     0.392553731
 H        4.423108039    18.506505057    -0.630514166
 H        3.964725523    16.806249182    -0.419703770
 H        3.154838557    18.071413559     0.559716261
 H       -0.621903719    22.113256508     0.730926460
 H       -1.491621567    20.964333338     1.771539623
 H       -1.309834311    20.623529568     0.021468106
 H        2.341532252    19.187374402     2.606277652
 H        2.321440389    16.871249359     3.467505159
 H       -1.674305370    16.343838593     1.944312912
 H       -1.634852566    18.616859220     1.031540819
 H        1.319640199    14.851674621     3.804694703
 H       -1.593964987    14.438871641     2.751238920
 H        1.971976239    11.068056751     3.115285482
 H        4.142453331    10.805826211     4.183469704
 H        2.837802563    13.191536575     7.519654330
 H        0.652527542    13.468629183     6.498511375
 H        5.659105325    11.183194305     5.915477076
 H        4.679365506    12.896889373     8.301128006
 H        7.503494901    10.892077176     6.696117521
 H        9.683628458    10.606042701     7.723543776
 H        8.370062263    13.025494931    11.093859528
 H        6.193785200    13.269156602    10.036518963
 H        3.214860673    19.962276899    -1.789722676
 H        2.086740309    19.344689651    -3.012560437
 H        0.681578122    20.802677458    -1.807241532
 H        0.294478059    19.260408747    -1.059058904
 H        2.447231089    20.118225534     0.561370374
 H        1.698831043    21.667021839     0.121809588
 H        2.268300079    -1.027743206     0.069761249
 H        2.269530398     0.569901150     0.858219940
 H        2.279547669     0.450535758    -0.920738493
 H       13.191208653    11.284652197     9.442703959
 H       12.194249008    12.178412400     8.267323329
 H       12.028221495    10.409940607     8.418558919
 H       11.264347717    14.018931375    10.671891078
 H       10.581923945    13.257404169    12.131854504
 H       12.301669459    13.032519316    11.732842848
 H       10.558405006     9.175460761    10.841529812
 H       11.765043062     9.923083962    11.920381923
 H       10.025511832    10.206621363    12.190472998
 H       -1.802192298    13.044364008     6.025040548
 H       -2.884027726    12.383783350     4.774917197
 H       -1.819116612    11.293456143     5.698460080
 H       -0.196541616    11.490069050     1.676546386
 H       -0.483393683    10.234792321     2.909861213
 H       -1.842505979    11.179232418     2.276268844
 H       -4.283198274    12.583365983    -2.864513262
 H       -5.687371960    12.099539931    -1.885638273
 H       -5.212510111    13.815055100    -1.968628857
 H       -4.031447489    12.688963256     2.029199140
 H       -4.948573800    13.963017690     1.186379625
 H       -5.563162229    12.291566928     1.209767009
 H       -0.285575333    -0.347230482    -2.452142054
 H       -0.283572812    -1.904370890    -1.583712785
 H       -1.735920305    -0.870422126    -1.563444042
 H       -0.307105024    -0.367992676     2.445417117
 H       -1.703813714    -0.996371023     1.533677895
 H       -0.182880026    -1.919494793     1.578049773

