139   

Si        0.000000000     0.000000000     0.000000000
 C        1.869239337     0.000000000     0.000000000
 C       -0.653644955     1.726423663     0.000000000
 C        0.188010859     2.827432919     0.183483653
 C       -0.327555724     4.123696428     0.179870073
 C       -1.694116374     4.348439245    -0.004605043
 C       -2.536953262     3.243329552    -0.185950816
 C       -2.025432215     1.948588851    -0.182670207
 C       -2.278179922     5.685723391    -0.015844514
 C       -1.583903196     6.824885833     0.146141780
 C       -2.168577169     8.161982075     0.134804204
 C       -1.326047796     9.267101348     0.316277225
 C       -1.838438693    10.561998277     0.313046352
 C       -3.209925187    10.780787926     0.135225406
 C       -4.053356176     9.679814721    -0.045620310
 C       -3.536008426     8.384934007    -0.048692506
Si       -3.895378731    12.494051382     0.129913861
 C       -5.681233712    12.395942359     0.518991058
 C       -6.688134902    12.809443140    -0.261550547
 C       -8.101314323    12.702494381     0.108853916
 C       -9.076534763    13.167900222    -0.785583001
 C      -10.424531280    13.087465213    -0.478291721
 C      -10.845491679    12.578376510     0.767282669
 C       -9.870635684    12.112844759     1.665264241
 C       -8.523522202    12.157655096     1.323421041
 N      -12.231305025    12.511267997     1.046179147
 C      -13.011571734    13.716719330     0.706452574
 C      -12.613210344    11.941310094     2.349286629
 C      -12.545706328    14.978424730     1.453609098
 C      -13.343351822    16.231054966     1.053112128
 N      -13.304865998    16.589352848    -0.381019217
 C      -12.051306373    16.437586069    -1.014866622
 C      -10.920749674    17.019811208    -0.403014570
 C       -9.671822123    16.897135326    -0.987564608
 C       -9.506659536    16.221967215    -2.206993024
 C      -10.632801831    15.671059320    -2.821886756
 C      -11.894165146    15.783259972    -2.247269707
 C      -14.485080295    16.130212668    -1.130623783
 C       -8.163756073    16.120934411    -2.782015159
 C       -7.889711516    15.501376171    -3.937481165
Si       -6.227808238    15.351486238    -4.692181118
 C       -6.256116327    16.153562912    -6.351310446
 C       -7.238803992    17.097271931    -6.667066263
 C       -7.260023842    17.704020461    -7.922486223
 C       -6.296976648    17.387938733    -8.884707639
 C       -5.310811165    16.445351499    -8.563577473
 C       -5.288765243    15.834855837    -7.312206070
 C       -6.279506017    17.997032054   -10.210804303
 C       -7.164251509    18.910919481   -10.644130985
 C       -7.146703692    19.519946640   -11.970218718
 C       -6.185757121    19.201302924   -12.933854468
 C       -6.206596867    19.807913604   -14.189215049
 C       -7.186726533    20.754549422   -14.506721331
 C       -8.150631448    21.075617789   -13.542870686
 C       -8.131769902    20.462657810   -12.292366963
Si       -7.213229641    21.557086070   -16.169393485
 C       -5.472442982    21.703317060   -16.835441470
 C       -8.242638282    20.499846878   -17.315617309
 C       -7.959167707    23.266855397   -16.045214805
 C       -4.933774733    16.204010561    -3.649367698
 C       -5.837721038    13.530960117    -4.842502389
 C       -3.072773211    13.526499409     1.452756983
 C       -3.580462253    13.245876437    -1.548180475
 C       -0.609739745    -0.881713086    -1.531408600
 C       -0.624594865    -0.870607789     1.530995482
 H        1.265460662     2.715426772     0.332196161
 H        0.349919433     4.963673099     0.323373650
 H       -3.604914156     3.396394566    -0.331120153
 H       -2.731663935     1.126416589    -0.328462379
 H       -3.361034649     5.710522340    -0.170599853
 H       -0.501230168     6.800360125     0.300880174
 H       -0.258238648     9.114642797     0.460782547
 H       -1.133521511    11.385052640     0.457574594
 H       -5.133493047     9.793452482    -0.189312019
 H       -4.212162558     7.544160531    -0.193884571
 H       -5.879789002    11.945223160     1.505913712
 H       -6.530384638    13.265861611    -1.247759363
 H       -8.773460209    13.599449986    -1.743322170
 H      -11.159022726    13.434176692    -1.203052365
 H      -10.150733233    11.712863859     2.634088020
 H       -7.788968939    11.774072313     2.033068893
 H      -13.711570369    11.851017861     2.400422412
 H      -12.271488285    12.531615400     3.213971190
 H      -12.205794440    10.917061638     2.430127922
 H      -15.397256135    16.474816272    -0.612815539
 H      -14.547796703    15.038438484    -1.258320170
 H      -14.490985345    16.606353140    -2.128181768
 H      -11.033867846    17.566219669     0.529836256
 H       -8.805387916    17.337364525    -0.492420894
 H      -10.532659177    15.143972360    -3.772340880
 H      -12.744400851    15.340054322    -2.755567878
 H       -7.392765691    16.606770259    -2.169024670
 H       -8.685889465    15.021775384    -4.529888546
 H       -8.016984348    17.386565476    -5.952675713
 H       -8.037910719    18.432068399    -8.146361637
 H       -4.552150092    16.184913676    -9.299304511
 H       -4.497484911    15.105218688    -7.119437697
 H       -5.470125794    17.652841991   -10.861400458
 H       -7.973787713    19.255206154    -9.993545413
 H       -5.409446856    18.471533188   -12.710399709
 H       -5.429658628    19.515874371   -14.901233295
 H       -8.940136436    21.807640673   -13.733922639
 H       -8.891369738    20.723823864   -11.557660185
 H      -12.932671336    13.872356858    -0.395273462
 H      -14.084324798    13.512681178     0.913694141
 H      -12.626902478    14.827106610     2.545592795
 H      -11.463523247    15.138473991     1.258680357
 H      -14.403059168    16.122994237     1.371491315
 H      -12.943659608    17.111694066     1.612943649
 H        2.267119464    -1.029893818    -0.039018005
 H        2.276688436     0.475966034     0.909479066
 H        2.272246228     0.542943325    -0.873710210
 H       -5.457182997    22.245856762   -17.797429021
 H       -5.015145163    20.713393382   -17.007950519
 H       -4.820842153    22.254365727   -16.133148258
 H       -7.827722278    19.479534108   -17.402896570
 H       -9.280343145    20.401988527   -16.949053952
 H       -8.286033985    20.931140229   -18.331093956
 H       -7.417976930    23.886544498   -15.307329503
 H       -7.915260574    23.792642084   -17.015650333
 H       -9.018859184    23.230619246   -15.737765556
 H       -5.112662588    17.294075226    -3.605522062
 H       -4.930781470    15.823538816    -2.611954215
 H       -3.921408262    16.056549507    -4.065480270
 H       -6.541902908    13.024916474    -5.527747233
 H       -4.818538831    13.363627311    -5.232137096
 H       -5.908334294    13.022080459    -3.862757538
 H       -3.166567525    13.054011663     2.447212165
 H       -1.996725232    13.665599223     1.250863657
 H       -3.532113082    14.529270243     1.518606334
 H       -4.091630261    12.678575207    -2.347826843
 H       -3.937638421    14.290388460    -1.593975740
 H       -2.502478468    13.251095361    -1.789303131
 H       -0.275577753    -0.364341318    -2.449206515
 H       -0.230132603    -1.917670325    -1.576339672
 H       -1.712395462    -0.929573187    -1.562510548
 H       -0.276542581    -0.364170612     2.449592825
 H       -1.728515926    -0.888438789     1.563619304
 H       -0.271825497    -1.916030412     1.572258563

