139   

Si        0.000000000     0.000000000     0.000000000
 C        1.869085186     0.000000000     0.000000000
 C       -0.652988343     1.726862791     0.000000000
 C        0.121068161     2.794034825    -0.466793631
 C       -0.384629343     4.094005864    -0.461191697
 C       -1.675179891     4.356124581     0.006122339
 C       -2.451208308     3.285068036     0.469176765
 C       -1.949077139     1.986524651     0.464645504
 C       -2.248458310     5.697624608     0.032073389
 C       -1.618320515     6.810724528    -0.380113259
 C       -2.200058885     8.148956267    -0.350359485
 C       -1.436624744     9.229136060    -0.809946439
 C       -1.952734721    10.523805258    -0.799474461
 C       -3.244444746    10.768514160    -0.322077360
 C       -4.009340373     9.689722445     0.140042632
 C       -3.492184204     8.396171400     0.124211965
Si       -3.970383521    12.464917437    -0.288577137
 C       -5.497947263    12.509064381    -1.299575441
 C       -6.004611981    11.460173486    -1.961154824
 C       -7.224819518    11.498873724    -2.767679383
 C       -7.645408792    10.324449844    -3.410036287
 C       -8.792004536    10.303265225    -4.185559529
 C       -9.542266073    11.483110224    -4.385359761
 C       -9.121473259    12.661441971    -3.740986505
 C       -7.993433875    12.653946022    -2.929567874
 N      -10.703850146    11.438454126    -5.176998600
 C      -10.671825875    10.553203939    -6.354142971
 C      -11.387391752    12.715202428    -5.439996270
 C       -9.550435021    10.899304694    -7.354124265
 C       -9.860083584    10.373735872    -8.766906422
 N      -10.541762742    11.343940532    -9.652535055
 C      -11.811419492    11.770098015    -9.180508361
 C      -12.813298146    10.788855487    -9.034723673
 C      -14.072120035    11.142174290    -8.578631801
 C      -14.386334610    12.478906601    -8.286168824
 C      -13.397583808    13.449940980    -8.456579139
 C      -12.125894140    13.108744755    -8.906064435
 C       -9.641074485    12.411314201   -10.121377424
 C      -15.733745299    12.796851920    -7.806597512
 C      -16.147801081    14.032098499    -7.496488095
Si      -17.823056477    14.469284971    -6.894238608
 C      -18.579479908    15.654164640    -8.088260929
 C      -18.098104048    15.747054988    -9.398147210
 C      -18.670354272    16.643037797   -10.300463950
 C      -19.739693179    17.457311165    -9.917326058
 C      -20.223400594    17.357782689    -8.605771794
 C      -19.652110393    16.466671935    -7.700853421
 C      -20.369449328    18.408801377   -10.827233638
 C      -20.002491409    18.601336433   -12.105575017
 C      -20.631407196    19.552423673   -13.016366880
 C      -21.698754686    20.370135856   -12.633863352
 C      -22.269903086    21.265354298   -13.537241800
 C      -21.790182467    21.357608277   -14.848765350
 C      -20.722050496    20.538871180   -15.234402570
 C      -20.149119526    19.649838209   -14.327903404
Si      -22.553702640    22.546550731   -16.037287521
 C      -24.401581425    22.613155724   -15.761438488
 C      -21.806469804    24.233719473   -15.742687199
 C      -22.222126016    22.009358044   -17.796872274
 C      -18.924029455    12.967626517    -6.765858300
 C      -17.638182133    15.272187394    -5.217586993
 C       -4.392528998    12.906287066     1.477188503
 C       -2.770430621    13.719270061    -0.980351459
 C       -0.628483017    -0.862859697    -1.533842419
 C       -0.601782698    -0.897969444     1.525610091
 H        1.137689638     2.651682272    -0.843440725
 H        0.239224223     4.907603804    -0.827010685
 H       -3.459390378     3.467217668     0.837141948
 H       -2.601445910     1.192222643     0.838028369
 H       -3.268782913     5.749290966     0.424470038
 H       -0.598629046     6.762174720    -0.772471182
 H       -0.428294340     9.059273588    -1.182508079
 H       -1.312230159    11.326271067    -1.175079102
 H       -5.025338733     9.821174578     0.526874457
 H       -4.106574212     7.574423346     0.487984039
 H       -5.989458663    13.493239141    -1.326617473
 H       -5.527103797    10.468710957    -1.953706367
 H       -7.066332592     9.407669062    -3.289118648
 H       -9.111992252     9.370042456    -4.640148494
 H       -9.672704940    13.588188088    -3.862452880
 H       -7.698125896    13.576432231    -2.427953907
 H      -12.290615529    12.538227415    -6.053525823
 H      -10.761387119    13.452253934    -5.967205702
 H      -11.731337150    13.147033332    -4.482954163
 H       -8.788561416    11.947257071   -10.648433216
 H       -9.244570646    13.057597819    -9.322786711
 H      -10.170304359    13.039688838   -10.859255167
 H      -12.593865044     9.754752048    -9.292477049
 H      -14.833215962    10.370494309    -8.459083130
 H      -13.618478068    14.496664956    -8.241197882
 H      -11.379698229    13.889052116    -9.023692762
 H      -16.382920586    11.914927921    -7.725300411
 H      -15.472945871    14.899008860    -7.587214709
 H      -17.266127715    15.131400133    -9.756220823
 H      -18.275365233    16.700423348   -11.313380601
 H      -21.055882968    17.982700379    -8.287819332
 H      -20.070471449    16.433524267    -6.691277175
 H      -21.193552184    18.981398617   -10.391664989
 H      -19.178810367    18.027740332   -12.541224866
 H      -22.093854830    20.314023546   -11.621058969
 H      -23.100725320    21.879578784   -13.178750594
 H      -20.306437689    20.566198890   -16.245463092
 H      -19.318434363    19.022773315   -14.646821841
 H      -10.568345316     9.501845614    -6.002875383
 H      -11.669822785    10.603140177    -6.849047020
 H       -9.393969536    11.994450228    -7.379567927
 H       -8.590392145    10.483610771    -6.993254210
 H       -8.917350140    10.063885867    -9.273004679
 H      -10.487453890     9.455817320    -8.715168766
 H        2.266887877    -1.027965359     0.073528748
 H        2.270291905     0.572577578     0.855811356
 H        2.278839384     0.446418920    -0.922990991
 H      -24.893845674    23.263311821   -16.506299155
 H      -24.652910181    23.007102012   -14.761263037
 H      -24.854223721    21.608488343   -15.846738149
 H      -21.987819378    24.580044678   -14.709406594
 H      -20.712473258    24.220806905   -15.897607814
 H      -22.232110520    24.987727728   -16.427822448
 H      -22.578709124    20.978816958   -17.975378245
 H      -22.738025518    22.667771561   -18.518446698
 H      -21.144968753    22.037522606   -18.037627772
 H      -19.045055051    12.472059321    -7.746619678
 H      -18.512709207    12.223706996    -6.060557397
 H      -19.934383914    13.240270847    -6.410947501
 H      -17.049967173    16.205590382    -5.279991295
 H      -18.618669695    15.525625700    -4.777913362
 H      -17.119714326    14.600429704    -4.509259630
 H       -5.129124682    12.201887903     1.904162326
 H       -3.494839152    12.877222012     2.120727727
 H       -4.823253909    13.920401473     1.548701284
 H       -2.516194467    13.494422144    -2.032166851
 H       -3.197927222    14.737586294    -0.956551284
 H       -1.829871271    13.741249066    -0.402296312
 H       -0.284659919    -0.352411261    -2.451520379
 H       -0.276151987    -1.908206247    -1.580735516
 H       -1.732750906    -0.880170553    -1.562027113
 H       -0.301316044    -0.365547870     2.446401344
 H       -1.701624965    -0.991509690     1.539502289
 H       -0.182592053    -1.918342679     1.580506974

