139   

Si        0.000000000     0.000000000     0.000000000
 C        1.870022129     0.000000000     0.000000000
 C       -0.587292114     1.749510308     0.000000000
 C       -0.541886288     2.503250884    -1.178008708
 C       -0.982144406     3.825907730    -1.192786884
 C       -1.474740547     4.425880759    -0.031210391
 C       -1.516740490     3.671001442     1.148415140
 C       -1.077206557     2.349558681     1.165823224
 C       -1.947093419     5.804897852     0.006571398
 C       -1.966357418     6.645249075    -1.041719603
 C       -2.445218750     8.022297191    -0.975340611
 C       -2.931928032     8.589592875     0.206505472
 C       -3.381212455     9.907989160     0.233435849
 C       -3.350471269    10.697038189    -0.922569097
 C       -2.868985564    10.129004564    -2.108174464
 C       -2.430055768     8.806176686    -2.135275764
Si       -3.949965694    12.445192488    -0.872164859
 C       -3.369959473    13.309258639     0.641402529
 C       -2.609754139    12.756114537     1.594620368
 C       -2.138915172    13.428324914     2.805441195
 C       -1.348868063    12.688366832     3.695137293
 C       -0.863070518    13.250179898     4.863873618
 C       -1.084311581    14.610043631     5.149722424
 C       -1.865040883    15.361501862     4.247828739
 C       -2.397731357    14.767555238     3.110044586
 N       -0.598976424    15.201766883     6.332761949
 C        0.320134938    14.420122492     7.177517902
 C       -0.225272309    16.623931643     6.231655214
 C        1.725677011    14.227885631     6.580114158
 C        2.520846877    13.115341101     7.289558565
 N        2.277082793    11.737133526     6.809583923
 C        2.299381499    11.580561703     5.402743994
 C        3.389996972    12.120522330     4.690239880
 C        3.456300968    11.992735072     3.312777424
 C        2.441503647    11.340488466     2.596858083
 C        1.381623615    10.776707476     3.309959034
 C        1.325563735    10.855401122     4.697444796
 C        1.198213879    11.043987502     7.530763799
 C        2.559877882    11.232464098     1.141587090
 C        1.655246865    10.633488961     0.356818079
Si        1.781763476    10.486305568    -1.463742719
 C        1.794940753     8.699367916    -1.917313699
 C        2.462116005     7.769517722    -1.110419828
 C        2.471960932     6.419873503    -1.453164453
 C        1.815491280     5.967945671    -2.605461906
 C        1.145942063     6.897669683    -3.405440870
 C        1.131497088     8.249369127    -3.063348252
 C        1.854688034     4.544283396    -2.921694772
 C        1.266568340     3.980263039    -3.990479796
 C        1.309590408     2.555338170    -4.301068492
 C        1.981198512     1.630863304    -3.496479635
 C        1.999058145     0.276403121    -3.827712793
 C        1.331483111    -0.186181530    -4.965600623
 C        0.651102315     0.737101968    -5.770774572
 C        0.641540672     2.089957693    -5.441494204
Si        1.338636950    -1.973657134    -5.427698099
 C        2.154076824    -2.989586440    -4.086606372
 C       -0.429119430    -2.545054076    -5.634344162
 C        2.276249375    -2.178352685    -7.029802011
 C        0.330193957    11.389826492    -2.201831222
 C        3.370399835    11.240015236    -2.100671244
 C       -3.310012488    13.390802603    -2.352367830
 C       -5.817516311    12.427859628    -0.877060147
 C       -0.637033760    -0.850881103    -1.536448094
 C       -0.624119264    -0.908400332     1.510293652
 H       -0.169554785     2.089070175    -2.122038025
 H       -0.929165293     4.392327808    -2.122245586
 H       -1.896322463     4.119495950     2.064027958
 H       -1.134816101     1.810979836     2.114823752
 H       -2.304946053     6.133865570     0.987309476
 H       -1.600215534     6.327968872    -2.022266448
 H       -2.963994361     8.000132728     1.121356033
 H       -3.774862578    10.283335867     1.183942360
 H       -2.830141201    10.690921510    -3.045448121
 H       -2.061264317     8.382562455    -3.067665416
 H       -3.714898983    14.350756214     0.720443026
 H       -2.234295815    11.722812840     1.522777796
 H       -1.121806302    11.643132022     3.476584932
 H       -0.277699831    12.630782851     5.537093051
 H       -2.072411725    16.408398861     4.445111599
 H       -3.014866794    15.365442180     2.439310183
 H        0.276958393    16.958366185     7.153365804
 H       -1.143282517    17.230495530     6.127410152
 H        0.438178161    16.836447971     5.377326822
 H        1.355237502    11.154118327     8.617284177
 H        1.256735833     9.961978346     7.310127104
 H        0.183805321    11.398018902     7.287351090
 H        4.185932840    12.631219741     5.225377583
 H        4.309290588    12.412513275     2.779414966
 H        0.594475102    10.239128949     2.776889092
 H        0.503668118    10.372950949     5.217776940
 H        3.474858420    11.694316565     0.748532564
 H        0.739453918    10.183317177     0.774674641
 H        2.982740108     8.065733508    -0.193912258
 H        2.988883783     5.708478735    -0.811238980
 H        0.627514144     6.572089026    -4.304715164
 H        0.585514419     8.929928325    -3.722044441
 H        2.409169826     3.932453086    -2.202478761
 H        0.710985197     4.589135684    -4.708768048
 H        2.510511646     1.967820057    -2.605670058
 H        2.550339366    -0.397661048    -3.165376571
 H        0.111734167     0.433101814    -6.671973577
 H        0.108282588     2.791760558    -6.079743505
 H        0.390265733    14.933831931     8.163813200
 H       -0.157651052    13.437089014     7.391570795
 H        1.649730358    14.010465964     5.493750482
 H        2.288554395    15.177598372     6.637649888
 H        3.613287891    13.308221671     7.160272987
 H        2.339373817    13.150266387     8.385497248
 H        2.271084685    -1.028084130     0.004246569
 H        2.269231316     0.518696559     0.889830255
 H        2.271517176     0.515019677    -0.890735562
 H        2.109032768    -4.068014945    -4.321156480
 H        1.656760987    -2.842158181    -3.110547519
 H        3.218962675    -2.723330096    -3.965371381
 H       -1.006884213    -2.402340129    -4.702713086
 H       -0.947336819    -1.985804036    -6.432937567
 H       -0.476801982    -3.617006221    -5.894722843
 H        3.320944751    -1.831637850    -6.930024175
 H        2.305234656    -3.235504175    -7.347392470
 H        1.814032241    -1.596858494    -7.847190762
 H       -0.620415482    10.919707475    -1.884836624
 H        0.302400480    12.441468140    -1.860280513
 H        0.358267191    11.395224789    -3.303785198
 H        4.255841692    10.741382202    -1.667729949
 H        3.444435094    11.144697782    -3.198489490
 H        3.433428630    12.314558799    -1.854477812
 H       -2.205802443    13.352887072    -2.401315635
 H       -3.704418710    12.983660569    -3.299125083
 H       -3.601112573    14.455118584    -2.303621617
 H       -6.215726344    11.892479066     0.004157351
 H       -6.232601312    13.450656021    -0.860032994
 H       -6.211055161    11.921040292    -1.776173421
 H       -0.285079940    -0.339143504    -2.452701414
 H       -0.300822659    -1.900278132    -1.590870312
 H       -1.741248296    -0.850412290    -1.566395677
 H       -0.218206954    -0.478878188     2.442610739
 H       -1.726262986    -0.867798529     1.575244436
 H       -0.333760051    -1.973451108     1.484269355

