139   

Si        0.000000000     0.000000000     0.000000000
 C        1.869354683     0.000000000     0.000000000
 C       -0.640149448     1.731849342     0.000000000
 C        0.105501945     2.772429735    -0.563974294
 C       -0.383089983     4.078656726    -0.561096884
 C       -1.628985716     4.374014478    -0.001009326
 C       -2.376777656     3.329752249     0.558936427
 C       -1.890870382     2.024746790     0.558466013
 C       -2.181525082     5.724319394     0.025349501
 C       -1.570704000     6.812401599    -0.473746653
 C       -2.127070842     8.161279589    -0.445242135
 C       -3.374746463     8.448989501     0.117115044
 C       -3.869347150     9.751608006     0.123610148
 C       -3.129372489    10.797140780    -0.443258490
 C       -1.882096005    10.511896362    -1.008571956
 C       -1.386809936     9.209238069    -1.006405454
Si       -3.818285464    12.508744410    -0.415089621
 C       -3.926189478    13.100286889     1.315101317
 C       -3.556757793    12.386142748     2.386872710
 C       -3.644471329    12.862217236     3.767807640
 C       -3.223967652    12.014805472     4.803454271
 C       -3.285266124    12.414868533     6.127909922
 C       -3.825693980    13.674047608     6.470772018
 C       -4.250705137    14.524213944     5.431455246
 C       -4.137005446    14.125124076     4.105699516
 N       -3.883249371    14.070015591     7.815972482
 C       -4.024499460    13.018315325     8.837536196
 C       -4.611941178    15.309421064     8.122440058
 C       -5.259997527    12.115366734     8.680804121
 C       -6.551444305    12.716220679     9.261686591
 N       -6.696716866    12.601098629    10.723781915
 C       -6.593688316    11.319603017    11.287942956
 C       -7.076299021    10.201618093    10.572292498
 C       -6.983273694     8.929883166    11.112707655
 C       -6.454118497     8.721478001    12.394771937
 C       -6.004755379     9.832569975    13.113204766
 C       -6.075820963    11.113584156    12.580791693
 C       -6.113541988    13.718984761    11.479203125
 C       -6.379014249     7.356021175    12.917472325
 C       -5.893697558     7.039760664    14.125236251
Si       -5.781864652     5.347014515    14.816714769
 C       -6.782008471     5.290176574    16.366219814
 C       -7.840741424     6.184891216    16.554881214
 C       -8.599903566     6.146544729    17.723745943
 C       -8.323993103     5.210069370    18.724042974
 C       -7.266043877     4.311952573    18.529952336
 C       -6.503546834     4.349577227    17.365074117
 C       -9.091546100     5.133215345    19.962932113
 C      -10.126476896     5.933010936    20.271554752
 C      -10.894792641     5.857269400    21.509882910
 C      -10.619193251     4.924462262    22.512772951
 C      -11.380244239     4.887859843    23.681472722
 C      -12.436059230     5.783877126    23.871309062
 C      -12.715612086     6.720317092    22.866409399
 C      -11.954060321     6.755063642    21.701723839
Si      -13.462602932     5.762546295    25.405314086
 C      -12.908818093     4.398862735    26.557436530
 C      -13.285082390     7.411075572    26.267802698
 C      -15.247232639     5.477752067    24.928157221
 C       -6.451280540     4.068835570    13.631877535
 C       -3.985619823     4.992280559    15.189501558
 C       -2.726371485    13.682658068    -1.374912410
 C       -5.529111798    12.492687085    -1.166589521
 C       -0.631247038    -0.858104990    -1.535104872
 C       -0.603204182    -0.901135465     1.523089391
 H        1.086483028     2.603814426    -1.016845320
 H        0.218436273     4.870959596    -1.003272703
 H       -3.350082420     3.537615421     0.999785603
 H       -2.519477952     1.252444040     1.010358389
 H       -3.166344640     5.805205463     0.495280172
 H       -0.586476609     6.732563744    -0.944413968
 H       -3.971114689     7.652368500     0.558249705
 H       -4.849413533     9.915793576     0.582536420
 H       -1.260543857    11.288174805    -1.463126329
 H       -0.413060188     9.007398583    -1.448753048
 H       -4.327529564    14.119667621     1.417720210
 H       -3.149153283    11.367100025     2.307848594
 H       -2.827577706    11.026601929     4.563251242
 H       -2.914648847    11.747673214     6.901100258
 H       -4.663710310    15.503657113     5.646978317
 H       -4.456680004    14.810609045     3.319516244
 H       -4.600631602    15.500332105     9.208093627
 H       -5.659259096    15.301685184     7.778127592
 H       -4.089677515    16.160403755     7.644944842
 H       -6.288687984    14.667828454    10.945524180
 H       -5.031851477    13.613342986    11.664143279
 H       -6.631121958    13.803732134    12.453746371
 H       -7.522630597    10.332409290     9.590433510
 H       -7.342658017     8.078537186    10.533298330
 H       -5.589336275     9.700166859    14.113959243
 H       -5.712427171    11.945864034    13.174273359
 H       -6.765091474     6.603429565    12.217253597
 H       -5.512185390     7.817922466    14.806175098
 H       -8.103929111     6.938934904    15.805118600
 H       -9.416064978     6.855981353    17.849437101
 H       -7.034889836     3.575048237    19.296724819
 H       -5.689915501     3.625631840    17.269884080
 H       -8.763313596     4.353830686    20.656827590
 H      -10.454900116     6.711905014    19.576750035
 H       -9.803310454     4.214440912    22.389483436
 H      -11.115854015     4.136147051    24.430242037
 H      -13.529258177     7.445248149    22.959421799
 H      -12.186183905     7.489002201    20.932028411
 H       -3.098656336    12.393748195     8.804213414
 H       -4.014995368    13.495106096     9.842091978
 H       -5.418936735    11.882954604     7.607518989
 H       -5.056474287    11.134929594     9.158819535
 H       -6.643718188    13.786871723     8.976569131
 H       -7.435784363    12.213002255     8.800231328
 H        2.267947302    -1.027445900     0.075425511
 H        2.269700874     0.574669708     0.854883618
 H        2.279361893     0.445458818    -0.923275786
 H      -13.535862241     4.367093653    27.466483361
 H      -11.863209692     4.542759450    26.883131059
 H      -12.978018068     3.407708931    26.074745102
 H      -12.234815104     7.601389910    26.554535654
 H      -13.605256583     8.244817345    25.618198845
 H      -13.894212811     7.451443538    27.187856970
 H      -15.371036521     4.512251651    24.404643797
 H      -15.903785049     5.462063070    25.815726452
 H      -15.618077806     6.268552471    24.252459501
 H       -7.514797133     4.256888704    13.396335411
 H       -5.890337112     4.067415647    12.680499494
 H       -6.385541585     3.052219054    14.059462452
 H       -3.589048588     5.683933859    15.954657698
 H       -3.842318499     3.963537626    15.563033622
 H       -3.362034516     5.107117315    14.284217107
 H       -1.717020157    13.749737012    -0.929572896
 H       -2.612018508    13.359691990    -2.424785054
 H       -3.148230280    14.703534223    -1.386065765
 H       -6.214354530    11.837384784    -0.599635227
 H       -5.973259297    13.503390754    -1.181667614
 H       -5.502905807    12.123139987    -2.207627206
 H       -0.286684565    -0.346878305    -2.452073520
 H       -0.281861934    -1.904357042    -1.584277753
 H       -1.735686737    -0.872521054    -1.562463208
 H       -0.311425774    -0.366405940     2.445214311
 H       -1.702355745    -1.003581550     1.530735401
 H       -0.176686700    -1.918425403     1.580258564

