139   

Si        0.000000000     0.000000000     0.000000000
 C        1.868940038     0.000000000     0.000000000
 C       -0.666004162     1.721022121     0.000000000
 C        0.172691254     2.836819881    -0.071322929
 C       -0.359848253     4.126503672    -0.069444803
 C       -1.740235436     4.329149451     0.002353725
 C       -2.579825718     3.208780201     0.072674670
 C       -2.051688298     1.921044900     0.071139324
 C       -2.344435549     5.657221959     0.007365187
 C       -1.660304204     6.812290316    -0.054977484
 C       -2.272039093     8.137458229    -0.049488631
 C       -1.443082113     9.264630083    -0.119222740
 C       -1.983629996    10.548617629    -0.116781610
 C       -3.368189481    10.734263461    -0.035213456
 C       -4.198842312     9.610090461     0.035548136
 C       -3.655234244     8.326743891     0.024905061
Si       -4.115480131    12.422777220    -0.029737831
 C       -5.623263934    12.348075427     1.011636092
 C       -6.868067331    12.620310848     0.599906599
 C       -8.051629238    12.549949328     1.461991175
 C       -9.305531440    12.857211067     0.921454390
 C      -10.456923408    12.804759132     1.699192360
 C      -10.379099299    12.411147295     3.042927690
 C       -9.120936991    12.105899424     3.593504870
 C       -7.977076798    12.194531201     2.814378709
 N      -11.505210459    12.327903973     3.915892767
 C      -12.733217124    12.995052291     3.431682808
 C      -11.761981372    10.943040157     4.368002892
 C      -13.681277316    13.309515047     4.603849239
 C      -13.046298440    14.250503912     5.647953975
 N      -12.881121260    15.658620745     5.237727212
 C      -11.754727117    15.903015978     4.405641446
 C      -10.482241162    15.660047124     4.960522166
 C       -9.342697230    15.877199521     4.205398165
 C       -9.430600109    16.362547769     2.890937774
 C      -10.692664062    16.625958418     2.356353934
 C      -11.847097837    16.414777503     3.103906753
 C      -14.138098755    16.297771127     4.816649533
 C       -8.193331850    16.574181350     2.137057044
 C       -8.153626157    17.032229200     0.879155728
Si       -6.626398235    17.307777318    -0.090542920
 C       -6.720716367    16.235880214    -1.590149628
 C       -7.673396133    15.214251603    -1.660373427
 C       -7.755770387    14.397316200    -2.786758476
 C       -6.883541464    14.579073286    -3.863587108
 C       -5.927306470    15.601203860    -3.789736672
 C       -5.845368569    16.421249279    -2.666835689
 C       -6.934042213    13.747785809    -5.061559392
 C       -7.802015583    12.739621429    -5.252066793
 C       -7.857229172    11.905168888    -6.447526512
 C       -6.992484428    12.080998506    -7.530571383
 C       -7.080886038    11.259324992    -8.654467941
 C       -8.037433046    10.242179020    -8.718425813
 C       -8.906103147    10.062776403    -7.633014518
 C       -8.815446324    10.884319951    -6.512889270
Si       -8.181282591     9.137347575   -10.190483787
 C       -6.944920626     9.618988746   -11.506786794
 C       -7.855804604     7.378210381    -9.650423243
 C       -9.909949446     9.285615354   -10.885711929
 C       -6.558372083    19.103548502    -0.599688279
 C       -5.107480347    16.859046992     0.895010579
 C       -2.932401681    13.657351093     0.723074252
 C       -4.505657161    12.900091226    -1.786900745
 C       -0.617340457    -0.876020000    -1.531431971
 C       -0.611654402    -0.880577685     1.531512021
 H        1.260301361     2.741471837    -0.129628225
 H        0.315074859     4.978798925    -0.125246410
 H       -3.658401493     3.344718766     0.128845514
 H       -2.756281853     1.086517406     0.127311720
 H       -3.437113463     5.660910004     0.067035887
 H       -0.568263495     6.811614075    -0.115604126
 H       -0.363851417     9.139081173    -0.178272824
 H       -1.288731160    11.390207717    -0.176548993
 H       -5.288848682     9.697018750     0.101457734
 H       -4.321962418     7.467932226     0.077437870
 H       -5.421007792    12.046529053     2.051986733
 H       -7.097430310    12.926753263    -0.430916169
 H       -9.388916457    13.144366511    -0.127056806
 H      -11.411921728    13.053162698     1.246701524
 H       -9.048499141    11.829380642     4.643244907
 H       -7.009394091    11.973829118     3.265847887
 H      -12.442050711    10.970225425     5.235445615
 H      -10.823709842    10.472135289     4.705250825
 H      -12.205611521    10.304527151     3.588141598
 H      -14.890499163    16.162705826     5.612293330
 H      -14.555910513    15.912572711     3.873886190
 H      -13.968670423    17.384194708     4.708494416
 H      -10.402967303    15.290211421     5.980873552
 H       -8.365152299    15.666770059     4.639550563
 H      -10.785567977    17.004365898     1.337810800
 H      -12.813297537    16.631484772     2.660297005
 H       -7.290961421    16.308104409     2.703968779
 H       -9.077416512    17.288135548     0.336340819
 H       -8.381493958    15.026915670    -0.844032896
 H       -8.509502081    13.612598087    -2.820913189
 H       -5.240851152    15.759570365    -4.619076587
 H       -5.081909987    17.203532507    -2.665025911
 H       -6.195904123    14.000962918    -5.827677425
 H       -8.539512822    12.486237297    -4.484101878
 H       -6.237806090    12.865291025    -7.505709850
 H       -6.376644135    11.445064179    -9.470109003
 H       -9.673061434     9.283150593    -7.626522300
 H       -9.497892276    10.729317704    -5.679195801
 H      -12.442030502    13.955604261     2.942436063
 H      -13.270528459    12.390062003     2.669619803
 H      -14.612695704    13.749366240     4.203005352
 H      -13.986827440    12.373864433     5.108452475
 H      -13.668576748    14.255198986     6.571455903
 H      -12.046968970    13.844097064     5.938346692
 H        2.266183677    -1.030677460     0.020019225
 H        2.273802808     0.526956049     0.882469829
 H        2.275054245     0.492321172    -0.901512834
 H       -7.043529210     8.975975678   -12.399736650
 H       -5.906489266     9.520472304   -11.143056564
 H       -7.089154936    10.663572384   -11.835594199
 H       -6.843377260     7.273579130    -9.219005254
 H       -8.576699977     7.050021592    -8.880855932
 H       -7.930448766     6.676050088   -10.499258662
 H      -10.128641725    10.323920242   -11.194768083
 H      -10.043978048     8.639385967   -11.770924263
 H      -10.673224750     8.995617064   -10.142303127
 H       -7.422745312    19.376642179    -1.231484719
 H       -6.571786576    19.768905887     0.282636672
 H       -5.643282844    19.330015169    -1.173665641
 H       -5.200766071    15.841543868     1.321088011
 H       -4.198440369    16.879628325     0.268756809
 H       -4.951392723    17.559080931     1.734984561
 H       -2.639156349    13.365193341     1.746671722
 H       -2.010388819    13.749246078     0.123067202
 H       -3.389553453    14.662145831     0.780050324
 H       -5.180184219    12.167552989    -2.268113545
 H       -5.004996479    13.888230972    -1.837149000
 H       -3.592739166    12.958911749    -2.405132339
 H       -0.273858700    -0.365688148    -2.449624577
 H       -0.254493518    -1.917906924    -1.573212547
 H       -1.720876674    -0.904588109    -1.564370935
 H       -0.269347280    -0.368710050     2.449339164
 H       -1.714680491    -0.916991054     1.566353857
 H       -0.241977461    -1.920185447     1.572177533

