139   

Si        0.000000000     0.000000000     0.000000000
 C        1.869109328     0.000000000     0.000000000
 C       -0.654410234     1.726240949     0.000000000
 C        0.141843456     2.805978638    -0.394294399
 C       -0.368591280     4.104218550    -0.388316494
 C       -1.685735263     4.351788572     0.007016636
 C       -2.483776503     3.267970741     0.397548047
 C       -1.977060582     1.971302561     0.392499850
 C       -2.264593271     5.690991824     0.030090127
 C       -1.614392170     6.814458529    -0.317602082
 C       -2.199729114     8.151102227    -0.292121427
 C       -1.410302689     9.242161236    -0.680837328
 C       -1.927315911    10.534572370    -0.672019759
 C       -3.247390612    10.769326823    -0.262813844
 C       -4.035394890     9.682895529     0.127105981
 C       -3.516943485     8.387933267     0.109215288
Si       -3.908741823    12.492069314    -0.260305236
 C       -4.008822769    13.115216829    -1.979876218
 C       -3.652074336    12.414191074    -3.064417162
 C       -3.733615324    12.915842901    -4.436691571
 C       -3.328230868    12.080971236    -5.487465030
 C       -3.384918238    12.506315286    -6.804943993
 C       -3.909122967    13.777173649    -7.125387574
 C       -4.320231751    14.614262919    -6.069943793
 C       -4.208917657    14.191720254    -4.751700088
 N       -3.965514364    14.206690488    -8.464474930
 C       -4.084737205    13.164784031    -9.500313396
 C       -4.802791185    15.385219794    -8.748552017
 C       -5.381215091    12.346758960    -9.388553324
 C       -5.356392305    11.157791380   -10.362393920
 N       -6.532891771    10.279260233   -10.228917368
 C       -7.788454029    10.853988775   -10.503777145
 C       -7.906834501    11.828600053   -11.517986337
 C       -9.135611783    12.403159158   -11.799965392
 C      -10.297556052    12.000362606   -11.126581108
 C      -10.183554380    11.012504156   -10.144551723
 C       -8.956612106    10.439192055    -9.836824235
 C       -6.447491442     9.396838959    -9.052237362
 C      -11.571141199    12.639699836   -11.462387640
 C      -12.739512853    12.333471289   -10.883439798
Si      -14.355476482    13.104535224   -11.269632690
 C      -14.999588946    13.891469413    -9.729741986
 C      -14.119407936    14.280169900    -8.714214546
 C      -14.601758521    14.875116504    -7.549027089
 C      -15.970210841    15.101452858    -7.376570576
 C      -16.848795926    14.715171884    -8.397533630
 C      -16.370923830    14.117765678    -9.561282902
 C      -16.520063392    15.720639040    -6.174846486
 C      -15.789651383    16.135452673    -5.125783025
 C      -16.339318585    16.754623340    -3.924050947
 C      -17.707740761    16.978442194    -3.749389860
 C      -18.189786975    17.573610747    -2.583958818
 C      -17.311035541    17.967167900    -1.569157858
 C      -15.938940272    17.744993015    -1.742288764
 C      -15.461112635    17.143422151    -2.903791738
Si      -17.943160148    18.755629639    -0.023908827
 C      -19.563921825    19.624624181    -0.360413930
 C      -18.197798092    17.418147269     1.255811780
 C      -16.704040939    20.007233601     0.603505287
 C      -14.201966081    14.416850949   -12.588660004
 C      -15.515642141    11.756714720   -11.842406392
 C       -5.618893329    12.549585857     0.490308123
 C       -2.758245704    13.588347422     0.722554583
 C       -0.627721218    -0.864865954    -1.532896915
 C       -0.602650255    -0.893957163     1.527537224
 H        1.179690932     2.675082181    -0.712769868
 H        0.273084254     4.927723554    -0.696643425
 H       -3.512833093     3.438783605     0.708828982
 H       -2.647457468     1.166627970     0.707307069
 H       -3.306698873     5.731572204     0.361739891
 H       -0.572699706     6.776170150    -0.648839320
 H       -0.381278892     9.079302239    -0.995832828
 H       -1.266072824    11.346329015    -0.991169126
 H       -5.071936326     9.804916043     0.453623170
 H       -4.152575640     7.558871153     0.414866725
 H       -4.397024032    14.141520191    -2.064408593
 H       -3.265434891    11.385904948    -3.004000703
 H       -2.948473261    11.082185284    -5.266332960
 H       -3.026756387    11.845518541    -7.588667756
 H       -4.720201878    15.603276570    -6.269187089
 H       -4.517995371    14.867804890    -3.953147534
 H       -4.793756328    15.604447294    -9.829321303
 H       -4.371400367    16.267431285    -8.241662045
 H       -5.851040682    15.264618211    -8.428586376
 H       -5.422896887     8.999480172    -8.955366257
 H       -7.112742685     8.527247182    -9.201650870
 H       -6.715932736     9.895533121    -8.106072753
 H       -7.032840855    12.139650862   -12.082797061
 H       -9.198517019    13.171183788   -12.571468147
 H      -11.071386204    10.679393098    -9.603714199
 H       -8.915352165     9.677424728    -9.064446899
 H      -11.478423377    13.404968179   -12.244136343
 H      -12.800535348    11.556868280   -10.103368907
 H      -13.037542240    14.128582945    -8.794418991
 H      -13.897702866    15.164415927    -6.770678060
 H      -17.918062855    14.882092013    -8.282428540
 H      -17.103307943    13.835371264   -10.322203371
 H      -17.608237253    15.833285430    -6.175449320
 H      -14.701359169    16.022753224    -5.125206139
 H      -18.412389143    16.686625773    -4.526116885
 H      -19.270572006    17.720101771    -2.504706088
 H      -15.204999212    18.031839472    -0.984087336
 H      -14.391502154    16.977113349    -3.018681621
 H       -4.017741714    13.652939097   -10.498746080
 H       -3.191445785    12.501956424    -9.433245273
 H       -5.515209338    11.985193667    -8.349377485
 H       -6.261392840    12.987266492    -9.588369199
 H       -5.296847114    11.513879241   -11.415716409
 H       -4.442641994    10.541019124   -10.203024925
 H        2.266900677    -1.028408278     0.067956871
 H        2.270762648     0.567711373     0.858775272
 H        2.278427787     0.450953072    -0.921054681
 H      -19.917169459    20.170269703     0.532686214
 H      -20.358170832    18.913498851    -0.647325579
 H      -19.461175766    20.359776674    -1.179090719
 H      -18.926408168    16.663490866     0.908653567
 H      -17.254535975    16.886741223     1.476009070
 H      -18.576080030    17.835845517     2.205302082
 H      -16.471138161    20.761085242    -0.170347667
 H      -17.092635328    20.546253368     1.485779243
 H      -15.753830927    19.530007010     0.900249966
 H      -13.517278172    15.225502011   -12.274118291
 H      -13.815140264    13.995865396   -13.533623544
 H      -15.179994590    14.882321062   -12.806497631
 H      -15.685653441    11.007518793   -11.048023994
 H      -16.499647313    12.162599577   -12.134384367
 H      -15.103004949    11.222747136   -12.717815809
 H       -6.338073405    11.950720376    -0.097469953
 H       -5.618862791    12.159318101     1.523507501
 H       -6.006089950    13.583553395     0.526605626
 H       -1.749960088    13.623700038     0.272187766
 H       -3.134570907    14.625108636     0.774717606
 H       -2.646129930    13.220444709     1.758451330
 H       -0.285228295    -0.353962560    -2.450895988
 H       -0.273197956    -1.909489732    -1.579903152
 H       -1.731928491    -0.884646348    -1.560638931
 H       -0.294054507    -0.364322719     2.447285816
 H       -1.703296536    -0.977200221     1.546210785
 H       -0.192173538    -1.917930121     1.580132398

