139   

Si        0.000000000     0.000000000     0.000000000
 C        1.869300324     0.000000000     0.000000000
 C       -0.597473297     1.746829648     0.000000000
 C       -0.111613232     2.645212433     0.957903010
 C       -0.549428347     3.968266970     0.975672651
 C       -1.485207710     4.424149556     0.041995106
 C       -1.971649166     3.523354308    -0.913579817
 C       -1.533973155     2.200628455    -0.935429032
 C       -1.971500405     5.800030043     0.023361231
 C       -1.583376658     6.759197670     0.880979449
 C       -2.068315943     8.135473221     0.864127868
 C       -1.576537644     9.033825611     1.820941197
 C       -2.009296582    10.357059125     1.844837999
 C       -2.952582931    10.811034271     0.914598229
 C       -3.445907080     9.916639441    -0.040597414
 C       -3.005193735     8.593723397    -0.065976814
Si       -3.525910005    12.564786947     0.946543475
 C       -5.095125031    12.685419387     0.009794965
 C       -5.292801392    13.446108001    -1.074988366
 C       -6.558786021    13.524123590    -1.805685474
 C       -6.641718301    14.359239278    -2.929930680
 C       -7.815168309    14.469426211    -3.656334886
 C       -8.947366433    13.701392898    -3.305888756
 C       -8.865145166    12.862147271    -2.179183523
 C       -7.693364092    12.797649473    -1.435603886
 N      -10.127774669    13.830449742    -4.058503886
 C       -9.971715314    13.995312559    -5.514516913
 C      -11.256398602    12.959649225    -3.694105050
 C       -9.175286438    12.857354573    -6.185858165
 C       -9.535612815    12.708060030    -7.675471855
 N      -10.528444129    11.646875718    -7.965577747
 C      -11.745219821    11.803947663    -7.244728867
 C      -12.530387568    12.935217348    -7.542871123
 C      -13.726139483    13.146268071    -6.876493703
 C      -14.191194440    12.229672224    -5.920583625
 C      -13.419964184    11.097825316    -5.647686418
 C      -12.214405144    10.875733408    -6.305182159
 C       -9.935779692    10.298013937    -7.922844728
 C      -15.462371484    12.499212688    -5.243691175
 C      -15.998616174    11.694626831    -4.317487034
Si      -17.582169868    11.982168768    -3.440604613
 C      -17.201230246    12.080155992    -1.637788314
 C      -15.909765754    12.411120162    -1.208776536
 C      -15.616318470    12.486595744     0.150392671
 C      -16.605571812    12.241135197     1.111668060
 C      -17.894540274    11.915819210     0.679168672
 C      -18.191483756    11.836769576    -0.681042439
 C      -16.249259391    12.332394289     2.523945705
 C      -17.099221186    12.119219719     3.542694411
 C      -16.742051239    12.210694753     4.954789839
 C      -15.453122606    12.536000469     5.387063785
 C      -15.155750945    12.612350359     6.747079766
 C      -16.141314967    12.356780281     7.707167189
 C      -17.432874225    12.030223412     7.276569561
 C      -17.728984349    11.961597177     5.917209796
Si      -15.739219742    12.460036194     9.506439256
 C      -13.997218438    11.848390245     9.800569622
 C      -15.883460083    14.245388192    10.038454526
 C      -16.925941878    11.408575720    10.496747313
 C      -18.391718519    13.576976789    -3.972381038
 C      -18.713675899    10.539262631    -3.791872906
 C       -3.861624623    13.094671447     2.706787650
 C       -2.192415195    13.637742757     0.199850842
 C       -0.614281149    -0.912881230    -1.510825484
 C       -0.639888457    -0.844432971     1.539454343
 H        0.619561491     2.347294706     1.714794770
 H       -0.154424625     4.647937863     1.728838961
 H       -2.700553402     3.856814329    -1.649989516
 H       -1.948325636     1.544602037    -1.705655929
 H       -2.701614839     6.016679783    -0.761949140
 H       -0.853121712     6.541664548     1.666172095
 H       -0.846412018     8.696384059     2.554075661
 H       -1.589150091    11.012655196     2.612399186
 H       -4.183441686    10.218825772    -0.791809888
 H       -3.401756304     7.917017730    -0.820714109
 H       -5.905189297    12.063576823     0.423700586
 H       -4.505521692    14.077911709    -1.507691515
 H       -5.771925598    14.943143094    -3.232481384
 H       -7.860516644    15.152552633    -4.499683245
 H       -9.713303198    12.257346473    -1.874072838
 H       -7.661010518    12.150426928    -0.557505212
 H      -12.137995716    13.213334662    -4.312867646
 H      -11.540265261    13.147343473    -2.643083529
 H      -11.049852546    11.885992343    -3.830209678
 H       -9.135779452    10.242858572    -8.682446669
 H      -10.698858607     9.552309906    -8.206921780
 H       -9.508300181    10.017025470    -6.947920646
 H      -12.195519902    13.634114538    -8.306907379
 H      -14.319450267    14.030844634    -7.109604272
 H      -13.763305150    10.367230301    -4.913302972
 H      -11.637582659     9.986270950    -6.068126754
 H      -15.938980209    13.432624368    -5.569771491
 H      -15.496743239    10.760266543    -4.015067341
 H      -15.098350516    12.617100703    -1.915037978
 H      -14.606127314    12.742219617     0.466306586
 H      -18.681189328    11.720890205     1.405866043
 H      -19.216515293    11.576937660    -0.958901241
 H      -15.204861077    12.596254212     2.715748510
 H      -18.143744645    11.856001416     3.351554851
 H      -14.667300533    12.734607468     4.660256723
 H      -14.130181705    12.873489490     7.023187403
 H      -18.242814404    11.819901148     7.980435626
 H      -18.739813613    11.708485720     5.602702679
 H      -10.989087710    14.078198806    -5.963107197
 H       -9.480428762    14.976036039    -5.705367699
 H       -8.091332491    13.042642970    -6.068604043
 H       -9.359124231    11.905355839    -5.651642211
 H       -9.935457662    13.663755264    -8.082565288
 H       -8.620985153    12.488878818    -8.270617875
 H        2.271039317    -1.028565528     0.002908872
 H        2.276807558     0.519292815     0.885153994
 H        2.268068139     0.510887786    -0.895354402
 H      -13.753328973    11.839036490    10.877772829
 H      -13.248624949    12.485490499     9.297988581
 H      -13.866273009    10.818505809     9.421512107
 H      -15.195462533    14.892935237     9.465637037
 H      -16.906620271    14.630802708     9.878704653
 H      -15.643771182    14.367321953    11.109351302
 H      -16.920481363    10.360572120    10.146366098
 H      -16.653739842    11.401205980    11.567351908
 H      -17.962778109    11.780702126    10.423370793
 H      -17.737694940    14.446171796    -3.774967602
 H      -18.627785469    13.570778384    -5.051391973
 H      -19.336771490    13.748674403    -3.425805200
 H      -18.288443332     9.591301712    -3.414969211
 H      -19.701689825    10.672632284    -3.317200919
 H      -18.880605364    10.418435711    -4.877874941
 H       -4.592608702    12.425398665     3.195536696
 H       -2.942049782    13.086178075     3.317124726
 H       -4.275641623    14.118828928     2.741494744
 H       -1.980322577    13.345964245    -0.844964354
 H       -2.484913696    14.702790246     0.199728786
 H       -1.245777531    13.551599576     0.762662806
 H       -0.288623293    -0.416786957    -2.442645813
 H       -0.228023928    -1.947647248    -1.535315190
 H       -1.716941432    -0.972837761    -1.529312757
 H       -0.291964615    -0.333634050     2.454945274
 H       -1.744778072    -0.847580998     1.564269362
 H       -0.302077712    -1.894230742     1.593094061

