139   

Si        0.000000000     0.000000000     0.000000000
 C        1.869351356     0.000000000     0.000000000
 C       -0.653488296     1.725449809     0.000000000
 C        0.173288446     2.818500850    -0.276161831
 C       -0.340143267     4.115363546    -0.271206318
 C       -1.685361159     4.348134695     0.025557908
 C       -2.513234369     3.251683468     0.301699466
 C       -2.007122493     1.955177813     0.281233713
 C       -2.266293695     5.685215771     0.042845820
 C       -1.589446096     6.816046988    -0.218362482
 C       -2.180022608     8.149823005    -0.198501092
 C       -1.368401073     9.253151124    -0.489066453
 C       -1.893049973    10.543799174    -0.480905119
 C       -3.249885057    10.754345959    -0.213345567
 C       -4.065073994     9.651999357     0.072235644
 C       -3.531442899     8.365735886     0.089258990
Si       -3.985198448    12.442466954    -0.192389942
 C       -5.508572016    12.545217957    -1.202434653
 C       -6.093473607    11.566457114    -1.906229829
 C       -7.319664654    11.755333289    -2.686284875
 C       -7.867056696    10.675774673    -3.395705972
 C       -9.025676581    10.822781759    -4.142538255
 C       -9.665270843    12.077020158    -4.237156822
 C       -9.118734408    13.159191882    -3.522267149
 C       -7.979584676    12.985327636    -2.747357712
 N      -10.842524066    12.220254466    -4.997661745
 C      -10.961250998    11.410948762    -6.221581017
 C      -11.363978840    13.586760918    -5.169408503
 C       -9.871576737    11.716843688    -7.263495733
 C      -10.094142704    10.968469912    -8.589268610
 N      -10.284696261     9.506085502    -8.483919232
 C       -9.468224100     8.849338723    -7.536578920
 C       -8.083568077     9.120730097    -7.545852439
 C       -7.246901758     8.499310425    -6.635240965
 C       -7.745792870     7.559011936    -5.719518276
 C       -9.111825879     7.274542928    -5.730640255
 C       -9.969116548     7.904356834    -6.626539806
 C      -11.697425882     9.097095039    -8.536277711
 C       -6.812513346     6.935668369    -4.781466139
 C       -7.152792771     6.026324115    -3.858654299
Si       -5.966600116     5.256973308    -2.691895652
 C       -4.284295011     5.938973174    -3.010286932
 C       -3.188309526     5.124964151    -3.311519949
 C       -1.935132783     5.689541499    -3.544479443
 C       -1.758500899     7.077948139    -3.510878150
 C       -2.858912014     7.888897735    -3.216602046
 C       -4.107108980     7.327697928    -2.961644333
 C       -0.432099600     7.632136327    -3.759651607
 C       -0.147507695     8.945299972    -3.730428238
 C        1.169867326     9.519997012    -3.975829449
 C        2.290165071     8.738979821    -4.272339817
 C        3.531454918     9.331956602    -4.500007857
 C        3.678801802    10.722052769    -4.440024084
 C        2.557563601    11.506207332    -4.141241618
 C        1.320184131    10.911388133    -3.908568529
Si        5.322802836    11.505794346    -4.741660819
 C        6.303108374    10.483860001    -5.962312022
 C        5.095875884    13.225813589    -5.438598015
 C        6.237586739    11.598703724    -3.114772772
 C       -6.461440849     5.698526630    -0.943022877
 C       -5.993689656     3.403983764    -2.911191227
 C       -4.411427371    12.872582655     1.575692288
 C       -2.768606679    13.688706350    -0.875136324
 C       -0.626507216    -0.866692164    -1.533002225
 C       -0.606633716    -0.888266369     1.529184395
 H        1.235739317     2.699270094    -0.503926835
 H        0.321370514     4.950028667    -0.497852800
 H       -3.565524552     3.413420044     0.527867319
 H       -2.701455750     1.138642239     0.496480958
 H       -3.331632309     5.717981386     0.289246872
 H       -0.526254612     6.787735224    -0.474254555
 H       -0.314556207     9.103603975    -0.721699589
 H       -1.209197000    11.367767710    -0.700873474
 H       -5.131175988     9.758427734     0.296595520
 H       -4.181123665     7.522405908     0.318548164
 H       -5.945192895    13.558612705    -1.183920194
 H       -5.691595305    10.545784861    -1.959618743
 H       -7.379915466     9.698239092    -3.360574165
 H       -9.430198223     9.958194803    -4.667185148
 H       -9.577542157    14.141271297    -3.559129215
 H       -7.590007268    13.840176892    -2.192562398
 H      -12.298712392    13.559781809    -5.753896067
 H      -10.659522708    14.268488519    -5.672463956
 H      -11.621911848    14.003275118    -4.178318529
 H      -12.172631556     9.550805282    -9.423304441
 H      -12.283296153     9.372297993    -7.645753046
 H      -11.754366458     8.001890603    -8.675763772
 H       -7.674582703     9.818959768    -8.271676010
 H       -6.181289504     8.736144097    -6.639810211
 H       -9.523145737     6.550190430    -5.026780709
 H      -11.026502168     7.662920782    -6.597641793
 H       -5.776732624     7.284852869    -4.917623274
 H       -8.191016429     5.682136691    -3.747062094
 H       -3.268988281     4.035949693    -3.359709808
 H       -1.088712427     5.039456677    -3.757190407
 H       -2.746100961     8.972267717    -3.170462508
 H       -4.923869727     8.014267653    -2.713964691
 H        0.343164311     6.893376759    -3.979028253
 H       -0.930579252     9.678355879    -3.507778125
 H        2.200823584     7.655600060    -4.329494283
 H        4.370762821     8.669223039    -4.727974261
 H        2.612807474    12.596582707    -4.081893481
 H        0.460155340    11.537640903    -3.676690329
 H      -10.924861425    10.334580500    -5.927295883
 H      -11.972251282    11.574310860    -6.655343758
 H       -9.827417399    12.803603780    -7.462247698
 H       -8.879208934    11.456691056    -6.837630872
 H      -10.960506080    11.408770893    -9.129279945
 H       -9.208375170    11.128493927    -9.251445137
 H        2.267200618    -1.028815405     0.059832154
 H        2.271396819     0.560880200     0.862950412
 H        2.277393057     0.458012975    -0.918107414
 H        7.263750250    10.969731756    -6.209489633
 H        5.746427715    10.348751781    -6.907447759
 H        6.533564054     9.480059343    -5.564785770
 H        4.483766477    13.206503730    -6.358505415
 H        4.595924605    13.897053929    -4.718751719
 H        6.067545864    13.683483792    -5.696477209
 H        6.389857919    10.594001524    -2.681190010
 H        7.231255379    12.064243589    -3.237416512
 H        5.677659398    12.195440301    -2.372465788
 H       -6.453513739     6.792793360    -0.786597519
 H       -7.478119837     5.337862485    -0.709260616
 H       -5.771119633     5.248490256    -0.208003738
 H       -5.720585055     3.118158550    -3.943495275
 H       -5.282067467     2.906991060    -2.227299578
 H       -6.995346700     2.986344768    -2.709112519
 H       -5.146493055    12.162027291     1.995140034
 H       -3.515724164    12.840306736     2.221515429
 H       -4.844821650    13.884710979     1.653325648
 H       -2.478007849    13.438473237    -1.911694448
 H       -3.203181329    14.703683207    -0.890635123
 H       -1.848673145    13.732800673    -0.266374702
 H       -0.282544512    -0.356343843    -2.450693049
 H       -0.271161250    -1.910971922    -1.578563893
 H       -1.730435356    -0.887228195    -1.561819797
 H       -0.283888913    -0.365423681     2.447990580
 H       -1.708447240    -0.951794940     1.554780325
 H       -0.212914364    -1.918833562     1.576864092

