139   

Si        0.000000000     0.000000000     0.000000000
 C        1.869147390     0.000000000     0.000000000
 C       -0.654528975     1.726211918     0.000000000
 C        0.179200138     2.823969051     0.232991101
 C       -0.336045231     4.120360350     0.228575004
 C       -1.694474466     4.348177876    -0.005351658
 C       -2.529560758     3.246397869    -0.235636803
 C       -2.018308337     1.951562742    -0.231797696
 C       -2.278137230     5.685538748    -0.019494251
 C       -1.591895602     6.822601466     0.185928567
 C       -2.178212328     8.158963937     0.171228370
 C       -1.346629453     9.263229725     0.401092642
 C       -1.861827199    10.557356833     0.396527534
 C       -3.225357709    10.775260571     0.168028591
 C       -4.058513574     9.674806959    -0.061410525
 C       -3.538263272     8.381428834    -0.062346363
Si       -3.929101292    12.481345967     0.157632648
 C       -5.712174361    12.330323139     0.550685225
 C       -6.721014267    12.719834211    -0.238790190
 C       -8.135103172    12.579823657     0.116044810
 C       -9.108677937    13.024468807    -0.792299687
 C      -10.457726673    12.913922326    -0.502836685
 C      -10.877478967    12.320488232     0.706663713
 C       -9.906967362    11.880807743     1.620226815
 C       -8.555266165    12.031757336     1.329506856
 N      -12.267239102    12.232916141     0.952177236
 C      -13.052768105    11.556241715    -0.106977672
 C      -12.670168844    11.844415899     2.313623250
 C      -12.346467868    10.401325812    -0.835857027
 C      -11.934190853     9.254224383     0.104316005
 N      -10.890260018     8.381816915    -0.466279165
 C      -11.200159697     7.735138863    -1.677664948
 C      -12.514544913     7.272574512    -1.904696929
 C      -12.838508630     6.634070050    -3.090249016
 C      -11.866503504     6.386668527    -4.070786555
 C      -10.559123191     6.816898854    -3.830367359
 C      -10.220463845     7.473524657    -2.653943883
 C       -9.538653007     8.955608491    -0.347287767
 C      -12.265543042     5.708252797    -5.304410044
 C      -11.431442269     5.416972818    -6.311506331
Si      -11.916438001     4.568701616    -7.860618137
 C      -13.719054167     4.175414144    -7.829629768
 C      -14.220710875     3.332302516    -6.827894790
 C      -15.576152922     3.019766600    -6.781837623
 C      -16.465225958     3.541805821    -7.731514817
 C      -15.962463378     4.382552333    -8.727626047
 C      -14.603938580     4.696799689    -8.777224057
 C      -17.877209877     3.184778805    -7.641143782
 C      -18.830759674     3.613770934    -8.485263332
 C      -20.242702905     3.256333092    -8.394326076
 C      -20.745013995     2.415115147    -7.397452742
 C      -22.102305145     2.099685815    -7.348090692
 C      -22.990974316     2.626302863    -8.291884662
 C      -22.490216464     3.469725474    -9.291262157
 C      -21.132692499     3.777103382    -9.342677502
Si      -24.787668580     2.206328502    -8.223307827
 C      -25.321570852     1.984458535    -6.445386089
 C      -25.799607740     3.577056138    -8.992819357
 C      -25.055964283     0.616922785    -9.168276934
 C      -11.502266631     5.688628796    -9.298146607
 C      -10.953690532     2.974236943    -8.011155201
 C       -3.125889511    13.530655311     1.476989394
 C       -3.646865237    13.239022398    -1.524177398
 C       -0.607737829    -0.884208119    -1.530829615
 C       -0.625897281    -0.869309471     1.531058425
 H        1.250087034     2.709235055     0.421811968
 H        0.335077370     4.957890020     0.410873766
 H       -3.591308883     3.401817783    -0.419442603
 H       -2.718385299     1.131912469    -0.416850508
 H       -3.354347107     5.712192675    -0.215573450
 H       -0.516021377     6.796802730     0.382087215
 H       -0.284675117     9.111089911     0.584868104
 H       -1.165814717    11.380165513     0.580558588
 H       -5.132478495     9.787321862    -0.246080597
 H       -4.205977217     7.541139544    -0.245458572
 H       -5.903645549    11.875219703     1.536594797
 H       -6.563399987    13.178318127    -1.223702008
 H       -8.800029879    13.472475941    -1.737614489
 H      -11.201201408    13.291031054    -1.201705557
 H      -10.195681611    11.424111489     2.561844298
 H       -7.818056237    11.698590245     2.062111262
 H      -13.752110188    12.034454375     2.430930978
 H      -12.155649076    12.491016459     3.047310173
 H      -12.471279197    10.791812681     2.567420152
 H       -9.417017579     9.434972986     0.640554868
 H       -9.309269589     9.713819603    -1.114436207
 H       -8.792782781     8.142751903    -0.404844067
 H      -13.282560280     7.418232061    -1.150731193
 H      -13.865758646     6.306080634    -3.255501420
 H       -9.783411239     6.637075991    -4.575998590
 H       -9.192946903     7.792946141    -2.510185905
 H      -13.336537327     5.458223937    -5.331199343
 H      -10.363974022     5.681626088    -6.263118247
 H      -13.574459171     2.895015704    -6.059904110
 H      -15.947706232     2.361883774    -5.998351220
 H      -16.630852827     4.801622717    -9.477485465
 H      -14.270015173     5.360550116    -9.579424334
 H      -18.127939570     2.517707420    -6.811000644
 H      -18.580435701     4.280028856    -9.316212920
 H      -20.075643566     1.996012382    -6.648194554
 H      -22.434537233     1.434270951    -6.546349151
 H      -23.136496532     3.910828508   -10.055095021
 H      -20.762506879     4.432345857   -10.129174188
 H      -14.014558051    11.199637722     0.321256108
 H      -13.320009771    12.345918907    -0.851107719
 H      -13.007534787    10.011735240    -1.635187324
 H      -11.451687712    10.781329996    -1.370139724
 H      -11.550108311     9.656059460     1.069214629
 H      -12.814915056     8.627251312     0.367502453
 H        2.266895568    -1.029132365    -0.057196173
 H        2.277277517     0.459908469     0.917339246
 H        2.271960035     0.558134557    -0.864237152
 H      -26.409156052     1.805294272    -6.374376499
 H      -25.093288559     2.883427110    -5.844440045
 H      -24.814278099     1.127463821    -5.968902983
 H      -25.594238184     4.547577214    -8.505834175
 H      -25.583867018     3.691021779   -10.069563340
 H      -26.881620580     3.378481865    -8.892956858
 H      -24.469248988    -0.212975899    -8.734881161
 H      -26.118382121     0.316513401    -9.157815137
 H      -24.747978956     0.720244524   -10.224405119
 H      -12.042120030     6.650391583    -9.226939665
 H      -10.422437593     5.919894772    -9.327584562
 H      -11.767465512     5.222420896   -10.263323423
 H      -11.150628208     2.301656346    -7.156917044
 H      -11.227602639     2.428802822    -8.932113523
 H       -9.865811542     3.160432544    -8.043363001
 H       -3.205123182    13.057268412     2.472466860
 H       -2.053774657    13.694115418     1.270154454
 H       -3.606664428    14.523807667     1.543470061
 H       -4.114965282    12.634184618    -2.322222475
 H       -4.067321862    14.258751330    -1.583728848
 H       -2.568851740    13.308987806    -1.756732683
 H       -0.282894040    -0.361413859    -2.448890146
 H       -0.217506564    -1.916097700    -1.579779641
 H       -1.709914597    -0.944105151    -1.557343515
 H       -0.279497923    -0.361858654     2.449703069
 H       -1.729939226    -0.887735237     1.562192843
 H       -0.272676299    -1.914562487     1.573775019

