139   

Si        0.000000000     0.000000000     0.000000000
 C        1.869483803     0.000000000     0.000000000
 C       -0.607408672     1.742739341     0.000000000
 C       -0.060183442     2.669849479    -0.895154668
 C       -0.506267404     3.990232142    -0.909674797
 C       -1.509541530     4.415737175    -0.033517127
 C       -2.057008414     3.485869746     0.859254089
 C       -1.613499965     2.165362505     0.876028146
 C       -2.005591093     5.787078942    -0.015036069
 C       -1.566226084     6.771762621    -0.817047036
 C       -2.068146271     8.141735523    -0.792060767
 C       -1.523309129     9.074288203    -1.683537469
 C       -1.971491584    10.393098929    -1.695345532
 C       -2.984981145    10.803059093    -0.822243257
 C       -3.534744217     9.872688463     0.066789789
 C       -3.078064784     8.556176052     0.081235198
Si       -3.598045950    12.542218432    -0.815717553
 C       -5.426553723    12.461798216    -0.710443835
 C       -6.172990001    12.987827820     0.269703755
 C       -7.633725834    12.905776219     0.323943126
 C       -8.310763628    13.495059416     1.401049237
 C       -9.692261782    13.444808828     1.498210892
 C      -10.449158109    12.729790885     0.544888921
 C       -9.767845778    12.121743061    -0.528645440
 C       -8.387996654    12.228175960    -0.638110169
 N      -11.846840184    12.680958472     0.646127046
 C      -12.464672498    12.812092204     1.977295592
 C      -12.551198501    11.761828362    -0.258458457
 C      -11.894052043    11.873710510     3.059074734
 C      -12.957828316    11.016232040     3.769426456
 N      -13.272742351     9.717830114     3.129744408
 C      -12.127392842     9.013547386     2.674387334
 C      -11.134546222     8.707625263     3.627549766
 C       -9.993112530     8.022556662     3.248122619
 C       -9.802816486     7.617549184     1.917885929
 C      -10.800305478     7.902049646     0.983480270
 C      -11.961793385     8.572490059     1.354195034
 C      -14.410876339     9.783380466     2.200592291
 C       -8.576146349     6.895578414     1.572234552
 C       -8.288184812     6.461650444     0.338919368
Si       -6.769493372     5.555897159    -0.140909245
 C       -5.928036068     6.586778505    -1.418153607
 C       -6.321056892     7.917275941    -1.599726897
 C       -5.698373078     8.712814471    -2.558929832
 C       -4.668829977     8.199131966    -3.351910752
 C       -4.273027350     6.868572784    -3.163474369
 C       -4.892153234     6.069853850    -2.204393279
 C       -3.995640263     9.004790180    -4.365327073
 C       -4.294793261    10.288249078    -4.628506646
 C       -3.633698351    11.108702130    -5.636438521
 C       -2.601044836    10.625910050    -6.443922344
 C       -1.997394312    11.447555351    -7.395779644
 C       -2.409605770    12.774140970    -7.555189296
 C       -3.447554437    13.259834084    -6.748851198
 C       -4.055444721    12.434512833    -5.807088968
Si       -1.622965831    13.876434822    -8.809130301
 C        0.033458137    13.189229753    -9.337565117
 C       -2.758126819    13.990548966   -10.288884389
 C       -1.365965659    15.574612584    -8.069593020
 C       -5.616347461     5.309484106     1.306245358
 C       -7.249966355     3.901095036    -0.858191270
 C       -2.856128662    13.441286415     0.642835076
 C       -3.130023013    13.410548199    -2.401101892
 C       -0.637518986    -0.847090996    -1.539264956
 C       -0.610542500    -0.912662652     1.512871108
 H        0.726308620     2.396944091    -1.604180223
 H       -0.063563193     4.692473515    -1.613893411
 H       -2.836000057     3.795285055     1.554007459
 H       -2.077765560     1.485738417     1.595586003
 H       -2.790283676     5.982008527     0.722550931
 H       -0.782786001     6.584217763    -1.556489540
 H       -0.742268177     8.769417148    -2.376740442
 H       -1.512118663    11.076847413    -2.414737958
 H       -4.338690439    10.135956813     0.762045858
 H       -3.526268749     7.846664487     0.774485292
 H       -5.892132397    11.923052747    -1.551215555
 H       -5.739891166    13.529492224     1.120193011
 H       -7.744567822    14.021234295     2.170264456
 H      -10.185936654    13.952714392     2.320356534
 H      -10.308007123    11.557995227    -1.282226648
 H       -7.889045768    11.754409266    -1.485761003
 H      -13.641345968    11.863323676    -0.129942535
 H      -12.268942389    10.705376908    -0.107167442
 H      -12.333951013    12.042555278    -1.306465669
 H      -15.291322476    10.167677703     2.745152432
 H      -14.667349686     8.762341358     1.864790157
 H      -14.242580494    10.415930781     1.316832268
 H      -11.273763767     9.007532028     4.663571532
 H       -9.232626266     7.795711845     3.995946565
 H      -10.678744686     7.592833428    -0.055908015
 H      -12.726799544     8.756842948     0.606735841
 H       -7.905652046     6.745488735     2.428253702
 H       -8.984808399     6.627188161    -0.499410457
 H       -7.113265172     8.380759136    -1.000770643
 H       -6.018254114     9.746597080    -2.678706121
 H       -3.468024671     6.452924517    -3.765962235
 H       -4.535721607     5.041746042    -2.094565124
 H       -3.203606487     8.488208037    -4.913325124
 H       -5.087963120    10.798676084    -4.073046542
 H       -2.257251424     9.598804774    -6.334554494
 H       -1.195889848    11.013062581    -7.999129470
 H       -3.812847795    14.287274831    -6.830756382
 H       -4.869066755    12.826748318    -5.197925658
 H      -12.336865386    13.875520884     2.292729352
 H      -13.562573599    12.666413747     1.874969181
 H      -11.108742837    11.222886112     2.619172453
 H      -11.351489641    12.470752121     3.817156031
 H      -12.601441851    10.775330720     4.800706918
 H      -13.898442060    11.590812135     3.904308857
 H        2.270549280    -1.028310093     0.035364048
 H        2.268428298     0.543347433     0.875987522
 H        2.277646491     0.485099387    -0.903878767
 H        0.545698467    13.876144910   -10.034763759
 H       -0.072300731    12.217563617    -9.851185571
 H        0.700791421    13.039633257    -8.469821802
 H       -2.926803022    12.996952534   -10.742123530
 H       -3.746895776    14.395354578   -10.007939620
 H       -2.337157069    14.647251165   -11.070258536
 H       -0.750401349    15.521423703    -7.153330466
 H       -0.849794376    16.245678352    -8.778703654
 H       -2.323781990    16.052191658    -7.798851021
 H       -5.306424258     6.274151695     1.746831269
 H       -6.093717232     4.713332514     2.103791851
 H       -4.702290809     4.772590639     0.991061951
 H       -7.886085607     4.018090646    -1.753900193
 H       -6.360351755     3.318440068    -1.158169838
 H       -7.815106717     3.294550345    -0.128499798
 H       -3.118352777    12.949034489     1.596567274
 H       -1.753386492    13.465832310     0.579917073
 H       -3.209490792    14.485948014     0.695273726
 H       -3.411376288    12.812322272    -3.288917532
 H       -3.630370967    14.391038165    -2.488491169
 H       -2.041581422    13.587959656    -2.458019550
 H       -0.290199236    -0.335431845    -2.454439363
 H       -0.296510500    -1.895883822    -1.592540750
 H       -1.742178671    -0.853305463    -1.564379882
 H       -0.290775660    -0.408976450     2.442774386
 H       -1.712459936    -0.982155815     1.529874714
 H       -0.215204604    -1.943841540     1.542224324

