139   

Si        0.000000000     0.000000000     0.000000000
 C        1.869285052     0.000000000     0.000000000
 C       -0.643480628     1.730577576     0.000000000
 C        0.182516146     2.810630096     0.325120334
 C       -0.316829709     4.113402610     0.321164634
 C       -1.648311724     4.367105402    -0.016413814
 C       -2.475523295     3.283239094    -0.341969173
 C       -1.982554398     1.981297818    -0.329688349
 C       -2.212524082     5.712093364    -0.033783361
 C       -1.533551419     6.832803249     0.265318786
 C       -2.108020764     8.174209890     0.244786520
 C       -1.296247668     9.266495821     0.577241480
 C       -1.806213977    10.563245052     0.569775869
 C       -3.144999594    10.795496971     0.235778740
 C       -3.956495861     9.705887494    -0.100776829
 C       -3.440536502     8.411450138    -0.103387013
Si       -3.857816638    12.501668264     0.214798635
 C       -5.666021130    12.253325095     0.369822479
 C       -6.627186834    12.621085215    -0.486340051
 C       -8.050573979    12.365059958    -0.250625362
 C       -8.992688470    12.783922441    -1.199477658
 C      -10.347389939    12.559733948    -1.011725080
 C      -10.820097669    11.944398365     0.165220182
 C       -9.874306385    11.522605304     1.119022664
 C       -8.516975472    11.713263921     0.894569232
 N      -12.197935143    11.718843897     0.351083042
 C      -13.139542984    12.651638237    -0.289284431
 C      -12.629443637    11.311346750     1.698859657
 C      -13.080788754    14.074358367     0.292278657
 C      -14.048264355    15.039317012    -0.414300412
 N      -13.819355034    15.237260800    -1.861910484
 C      -12.468170983    15.339502307    -2.257364819
 C      -11.629658060    16.221352350    -1.541888501
 C      -10.297988418    16.354651435    -1.893433072
 C       -9.760552270    15.642423043    -2.977206090
 C      -10.600185008    14.793013406    -3.699903786
 C      -11.941629198    14.648857664    -3.361126413
 C      -14.701020032    14.422644962    -2.712580418
 C       -8.344934366    15.824887736    -3.300790910
 C       -7.713961168    15.205306097    -4.306851754
Si       -5.943562632    15.434226476    -4.710639657
 C       -5.044135248    13.829806788    -4.590814430
 C       -5.624151105    12.671583390    -4.066417362
 C       -4.896109195    11.481326870    -3.999178504
 C       -3.570415799    11.433980296    -4.436368720
 C       -2.989982645    12.600391344    -4.957344244
 C       -3.716639862    13.782881786    -5.038768947
 C       -2.750127462    10.230538932    -4.396940308
 C       -3.128906773     9.026501850    -3.936506295
 C       -2.249100735     7.860092208    -3.928039579
 C       -0.935801128     7.922093017    -4.405839678
 C       -0.114603689     6.797681632    -4.388226073
 C       -0.594970105     5.574663248    -3.905491386
 C       -1.908958396     5.507752860    -3.429655981
 C       -2.724428326     6.638955733    -3.436474305
Si        0.527343067     4.110078791    -3.900326712
 C        1.367303054     3.985257952    -5.569062160
 C        1.817908031     4.335582388    -2.569632260
 C       -0.443516735     2.544907222    -3.603527199
 C       -5.833408272    16.084005204    -6.458658726
 C       -5.136861207    16.630066184    -3.521629378
 C       -3.277959929    13.453447128     1.717275293
 C       -3.346657207    13.409302371    -1.323461054
 C       -0.608225441    -0.883720781    -1.531430154
 C       -0.630557201    -0.866872136     1.530051828
 H        1.234544424     2.676396448     0.591292104
 H        0.344368511     4.937150331     0.586263417
 H       -3.517337939     3.458538308    -0.603531926
 H       -2.676165470     1.176087631    -0.586256503
 H       -3.267590694     5.761001289    -0.318296357
 H       -0.476396712     6.789805316     0.541407040
 H       -0.253455877     9.103599598     0.841338181
 H       -1.125999392    11.377142449     0.832221907
 H       -5.009188534     9.828271594    -0.378735818
 H       -4.089556681     7.582052888    -0.377305460
 H       -5.924117885    11.732761872     1.309412139
 H       -6.419948681    13.145697221    -1.427622077
 H       -8.660798873    13.297806834    -2.105730236
 H      -11.044658552    12.881451134    -1.782435827
 H      -10.187656269    11.035898617     2.036213077
 H       -7.808436081    11.358161737     1.645075702
 H      -13.724262916    11.184878423     1.723717769
 H      -12.344219276    12.027716918     2.486353905
 H      -12.189697674    10.324737056     1.935248781
 H      -15.747823692    14.569527121    -2.394257806
 H      -14.479314286    13.344118103    -2.696472770
 H      -14.636124114    14.783761903    -3.755430260
 H      -12.033782652    16.799307764    -0.714781720
 H       -9.659420290    17.027663591    -1.319689047
 H      -10.207975923    14.231632422    -4.549600330
 H      -12.562557393    13.980083852    -3.948306829
 H       -7.837196841    16.525279344    -2.622828486
 H       -8.244707708    14.509217291    -4.974655701
 H       -6.656887286    12.654755896    -3.703413283
 H       -5.367832551    10.588957815    -3.590379382
 H       -1.958864134    12.581429041    -5.305283096
 H       -3.211168442    14.656108136    -5.460411487
 H       -1.736181116    10.370879760    -4.789070959
 H       -4.129705504     8.863583616    -3.530715235
 H       -0.537772207     8.858936681    -4.792023565
 H        0.904667539     6.913914132    -4.766583525
 H       -2.331474715     4.581027811    -3.030427985
 H       -3.740810219     6.568534117    -3.054965669
 H      -12.920609007    12.670607168    -1.382736636
 H      -14.165716675    12.232571965    -0.192304969
 H      -13.310982826    14.053469429     1.373464498
 H      -12.038971748    14.453782491     0.222712231
 H      -15.097340023    14.707768349    -0.254918305
 H      -13.970789784    16.047104311     0.062085605
 H        2.267465535    -1.028259498    -0.065204353
 H        2.277783728     0.452998875     0.920419526
 H        2.270432814     0.565922194    -0.860290427
 H        2.016988911     3.094621094    -5.623395682
 H        1.994883225     4.868619110    -5.777435970
 H        0.624816252     3.906881332    -6.383272195
 H        2.397901399     5.262329504    -2.721104804
 H        1.345835970     4.397750549    -1.571379789
 H        2.526837296     3.490146495    -2.551317845
 H       -1.226008460     2.401571138    -4.368648405
 H        0.212285975     1.657286956    -3.623004987
 H       -0.941319671     2.568342283    -2.614510180
 H       -6.247942941    15.361057342    -7.184241950
 H       -6.398894757    17.026551152    -6.570787621
 H       -4.788822424    16.285271707    -6.753173032
 H       -5.202803434    16.267418671    -2.479000365
 H       -4.066169299    16.766422282    -3.755169233
 H       -5.614604400    17.624633920    -3.563214790
 H       -3.492694691    12.904252920     2.650961035
 H       -2.190750981    13.639418897     1.682412962
 H       -3.782453323    14.433661845     1.785230712
 H       -3.646733328    12.860374285    -2.238586691
 H       -3.808433193    14.411317327    -1.376667517
 H       -2.251352122    13.540552809    -1.372941272
 H       -0.308059772    -0.345952217    -2.449510283
 H       -0.194934131    -1.905736885    -1.594100574
 H       -1.708663992    -0.970462467    -1.543095242
 H       -0.282621382    -0.361952418     2.449422711
 H       -1.734680820    -0.879675198     1.560585997
 H       -0.282835897    -1.913876507     1.572575666

