139   

Si        0.000000000     0.000000000     0.000000000
 C        1.869636403     0.000000000     0.000000000
 C       -0.630796202     1.735508741     0.000000000
 C        0.111750417     2.764860593    -0.588528282
 C       -0.366135161     4.074885048    -0.587612347
 C       -1.599221623     4.385307480    -0.007508598
 C       -2.344061195     3.352408348     0.576620586
 C       -1.867748039     2.043682430     0.580210157
 C       -2.138915475     5.740998224     0.016818937
 C       -1.525395759     6.817494252    -0.503474000
 C       -2.064860354     8.173223912    -0.479272504
 C       -1.317539320     9.206381192    -1.060695006
 C       -1.791505712    10.515910517    -1.061715347
 C       -3.031509277    10.820281618    -0.487404585
 C       -3.780687232     9.791229908     0.092758590
 C       -3.299319913     8.482637671     0.098664461
Si       -3.668853248    12.551200586    -0.483230054
 C       -5.490717168    12.481355004    -0.294463868
 C       -6.188680040    13.029737130     0.708064295
 C       -7.646769341    12.955276345     0.829118699
 C       -8.263989049    13.571991722     1.928794154
 C       -9.638701508    13.530643795     2.089595470
 C      -10.439811272    12.837411753     1.159356605
 C       -9.828414172    12.224778171     0.056035139
 C       -8.449602389    12.304897548    -0.110625894
 N      -11.839683978    12.836333848     1.385882105
 C      -12.267023954    12.185449494     2.641076293
 C      -12.681056249    12.501780800     0.227360494
 C      -12.534928652    10.671595466     2.574041413
 C      -11.295988862     9.810236784     2.265620825
 N      -10.366979439     9.608054344     3.387283352
 C      -10.876893872     9.124228124     4.595518273
 C      -11.979030301     8.239365142     4.590729428
 C      -12.492762786     7.753546890     5.781493470
 C      -11.909785570     8.082246385     7.013769632
 C      -10.800748397     8.933558811     7.014314433
 C      -10.282473512     9.445335566     5.832980566
 C       -9.253275374    10.562647213     3.444572219
 C      -12.493276167     7.541169209     8.241935793
 C      -12.020385747     7.788040898     9.470824936
Si      -12.718842680     7.132551623    11.031536916
 C      -11.410302435     6.135903605    11.868349687
 C      -10.416007228     5.508859075    11.109570726
 C       -9.422572875     4.753497272    11.731102022
 C       -9.404968396     4.601548769    13.120528328
 C      -10.404723386     5.227138231    13.877157235
 C      -11.396819840     5.985379620    13.259961922
 C       -8.384986612     3.820526376    13.813135032
 C       -7.375536735     3.173559243    13.206224995
 C       -6.354553802     2.392072380    13.896412366
 C       -6.331223489     2.240336315    15.285457799
 C       -5.335828096     1.483794205    15.903373389
 C       -4.345954481     0.852432884    15.143086767
 C       -4.368157946     1.001592874    13.750460155
 C       -5.358222400     1.764666419    13.136796699
Si       -3.024569897    -0.150964247    15.953022937
 C       -3.625188780    -0.801554449    17.599662451
 C       -2.569587008    -1.598937824    14.861281796
 C       -1.531729060     0.942552682    16.212281766
 C      -13.217213173     8.583269499    12.098954250
 C      -14.195692120     6.032267884    10.723604382
 C       -2.861637019    13.482032162     0.918763204
 C       -3.289314984    13.387396905    -2.109653844
 C       -0.633332434    -0.855199198    -1.535740102
 C       -0.605707186    -0.900594655     1.522039286
 H        1.082057059     2.584557947    -1.059460822
 H        0.233634159     4.858129632    -1.047920421
 H       -3.307222709     3.571867914     1.034298853
 H       -2.492662800     1.280565522     1.052395029
 H       -3.114080786     5.836168746     0.504088642
 H       -0.550487997     6.721825072    -0.990505692
 H       -0.354088831     8.986135641    -1.516594707
 H       -1.164304928    11.280757649    -1.527537973
 H       -4.756439052     9.972626793     0.556336759
 H       -3.899165937     7.699014624     0.558688593
 H       -5.995302665    11.932209475    -1.106418694
 H       -5.714021807    13.584078066     1.528552596
 H       -7.655467589    14.103584867     2.661270622
 H      -10.110489744    14.045364299     2.924714655
 H      -10.422076302    11.692355551    -0.681160128
 H       -7.994917655    11.834197542    -0.983861792
 H      -13.736183916    12.701660405     0.484599908
 H      -12.596673223    11.458490910    -0.114105673
 H      -12.419389064    13.170172042    -0.612859293
 H       -8.917581514    10.820231970     2.422496796
 H       -8.391668318    10.088921312     3.950516605
 H       -9.504609208    11.501623150     3.964494665
 H      -12.428674533     7.932898587     3.651474544
 H      -13.357122627     7.089150011     5.755061592
 H      -10.326484988     9.204744066     7.959435175
 H       -9.423112921    10.106203204     5.880320567
 H      -13.367988770     6.902763395     8.060214828
 H      -11.139864986     8.433454752     9.621908086
 H      -10.379258049     5.592763616    10.017827361
 H       -8.656739660     4.279324402    11.119630061
 H      -10.408710753     5.121684977    14.960269705
 H      -12.149249887     6.452273312    13.900931870
 H       -8.492725042     3.789687110    14.901276858
 H       -7.268804460     3.204814321    12.117623006
 H       -7.093744548     2.716088495    15.899691100
 H       -5.368995261     1.404568463    16.993468121
 H       -3.621175403     0.531271205    13.104996266
 H       -5.356930115     1.870664377    12.053359558
 H      -11.515476797    12.393512024     3.435354159
 H      -13.203674031    12.704847184     2.958800025
 H      -12.975443739    10.355089778     3.543666364
 H      -13.316194448    10.459452477     1.820302920
 H      -11.626171786     8.799508290     1.922679745
 H      -10.732291341    10.244889384     1.408487502
 H        2.268585168    -1.027851404     0.067023583
 H        2.269438175     0.567788102     0.859715290
 H        2.279671257     0.453227605    -0.919365130
 H       -2.871543744    -1.459900131    18.067329701
 H       -4.552892080    -1.390436048    17.482709734
 H       -3.835411163     0.015865870    18.311395086
 H       -3.455563628    -2.217621376    14.629757778
 H       -2.134397294    -1.268653198    13.901976221
 H       -1.827506718    -2.252604181    15.353128459
 H       -1.774007032     1.807036980    16.856404713
 H       -0.705504492     0.389229818    16.692077487
 H       -1.154771982     1.342499759    15.253801143
 H      -12.342754085     9.201430826    12.371348480
 H      -13.933110695     9.237976335    11.569621448
 H      -13.698820629     8.253639677    13.035688124
 H      -13.927901827     5.168766329    10.087675376
 H      -14.599716220     5.629285183    11.669578869
 H      -15.010361507     6.582056108    10.220100180
 H       -3.073467084    13.005272975     1.893266430
 H       -1.763181158    13.510340930     0.801053402
 H       -3.218109984    14.526224509     0.969180524
 H       -3.686919823    12.808400821    -2.962884586
 H       -3.740671784    14.395381671    -2.154524304
 H       -2.202209937    13.503338442    -2.263638855
 H       -0.287376586    -0.344421481    -2.452371144
 H       -0.286805198    -1.902390316    -1.585530349
 H       -1.737831390    -0.866684500    -1.563198726
 H       -0.312317541    -0.367769431     2.444797389
 H       -1.705247612    -0.999807958     1.529572846
 H       -0.182323304    -1.919267441     1.578286675

