139   

Si        0.000000000     0.000000000     0.000000000
 C        1.869641164     0.000000000     0.000000000
 C       -0.624023659     1.738009378     0.000000000
 C        0.085530944     2.745394424    -0.663198213
 C       -0.381885902     4.058945340    -0.665802778
 C       -1.571765280     4.395396485    -0.013947381
 C       -2.283573799     3.384757086     0.645024168
 C       -1.817452601     2.072158040     0.651780384
 C       -2.098242568     5.756376617     0.009074972
 C       -1.511033481     6.811833669    -0.580071629
 C       -2.034009470     8.173881920    -0.559418048
 C       -3.223012724     8.516299541     0.090596741
 C       -3.685234144     9.831911043     0.084373111
 C       -2.973852140    10.832894908    -0.585812259
 C       -1.783290076    10.492103081    -1.239899646
 C       -1.318091404     9.179654897    -1.221993483
Si       -3.581747143    12.575679185    -0.596815655
 C       -2.887060765    13.466369678     0.844576948
 C       -2.067923679    12.914473900     1.749969209
 C       -1.511356376    13.623750453     2.902637017
 C       -0.663680202    12.929798939     3.778685286
 C       -0.109537246    13.552189556     4.884792492
 C       -0.345781948    14.923391670     5.127400889
 C       -1.194595552    15.621306744     4.246906437
 C       -1.780198411    14.968402641     3.169408757
 N        0.221575868    15.543454309     6.252392901
 C        1.510631166    15.024785758     6.742716527
 C        0.084014062    17.003537402     6.356126689
 C        2.651676258    15.031273057     5.710871163
 C        3.387484196    16.378092994     5.605464659
 N        4.424646445    16.606466457     6.627724144
 C        5.444264026    15.647699940     6.742995975
 C        5.891241194    14.958936071     5.593769143
 C        6.895890510    14.010572509     5.690938576
 C        7.526790294    13.742115593     6.914398792
 C        7.104076149    14.446653532     8.044628498
 C        6.087030156    15.389745800     7.969006860
 C        3.920496420    17.203981335     7.872880859
 C        8.582830844    12.729353114     6.960079738
 C        9.252776894    12.390901715     8.069558104
Si       10.578612151    11.130469106     8.166243100
 C       12.119597175    11.957723929     8.754099241
 C       12.330863331    13.317790531     8.495728689
 C       13.492223637    13.946738699     8.937272787
 C       14.472680386    13.231935867     9.638106240
 C       14.260160684    11.873328597     9.889503793
 C       13.096659500    11.241045749     9.452340733
 C       15.672657251    13.935318977    10.080237599
 C       16.683155098    13.369583938    10.761955149
 C       17.883094881    14.072696860    11.204139225
 C       18.096903150    15.430947076    10.953513637
 C       19.259013308    16.063130039    11.394785546
 C       20.230882407    15.351367103    12.106170893
 C       20.018442478    13.990312501    12.359498262
 C       18.860715529    13.359770251    11.910595828
Si       21.770815120    16.184915042    12.692058659
 C       21.443281298    18.000229832    12.996166548
 C       22.354710180    15.400343238    14.285399037
 C       23.080211436    15.990981608    11.373258843
 C       10.039147995     9.817577775     9.381510400
 C       10.920028103    10.354730918     6.502720567
 C       -3.040010826    13.438650686    -2.163611555
 C       -5.447193392    12.608333851    -0.488477124
 C       -0.634177525    -0.851633217    -1.537318045
 C       -0.607261890    -0.903913996     1.519312981
 H        1.021107258     2.544201773    -1.192532951
 H        0.191841858     4.824700045    -1.185026716
 H       -3.212774219     3.624519347     1.158901395
 H       -2.415163715     1.327278492     1.184288400
 H       -3.038283023     5.874344834     0.556074993
 H       -0.571310247     6.691728761    -1.127455556
 H       -3.798792037     7.754096071     0.612416686
 H       -4.618370676    10.039810386     0.616146414
 H       -1.184540258    11.232441239    -1.778344132
 H       -0.388877571     8.934818615    -1.732996569
 H       -3.198689308    14.518738062     0.919565038
 H       -1.745128945    11.864066304     1.693740925
 H       -0.445750711    11.876116761     3.595338009
 H        0.511656655    12.973881048     5.563118272
 H       -1.411338541    16.673105535     4.398904460
 H       -2.448376319    15.528167973     2.513447322
 H        0.571670504    17.367206102     7.275514940
 H       -0.989205422    17.258399376     6.444676605
 H        0.505323303    17.548226347     5.495195675
 H        3.127729156    17.936567434     7.648839804
 H        4.741109332    17.764005978     8.360495096
 H        3.524506078    16.465356664     8.589197873
 H        5.446898481    15.165860454     4.624146082
 H        7.209351109    13.474855245     4.793950221
 H        7.578533981    14.259438522     9.009728332
 H        5.791872003    15.911733675     8.873098094
 H        8.778968021    12.265844088     5.983955559
 H        9.033589454    12.873300261     9.035850683
 H       11.599189928    13.925073924     7.952038617
 H       13.637611392    15.005902381     8.732282042
 H       15.005842937    11.295139176    10.431998478
 H       12.985118979    10.177683371     9.680819013
 H       15.705089839    14.995872573     9.813476618
 H       16.650587375    12.308960153    11.028246047
 H       17.353676604    16.008960475    10.407020306
 H       19.370219596    17.126605765    11.165708015
 H       20.742045572    13.383269076    12.910570403
 H       18.715266982    12.300612121    12.115269216
 H        1.801458029    15.597375126     7.650340107
 H        1.335814682    13.981294927     7.101286817
 H        3.375030832    14.228374415     5.962021307
 H        2.254706143    14.753929533     4.712540157
 H        3.881735658    16.456684471     4.606786180
 H        2.663328432    17.221105054     5.638429105
 H        2.268971610    -1.028599254     0.050938042
 H        2.269050597     0.554643968     0.868487574
 H        2.279828510     0.468222705    -0.911734154
 H       22.338819216    18.505126719    13.400203914
 H       20.624961236    18.142241234    13.725170102
 H       21.158855088    18.526526256    12.068268644
 H       21.562814417    15.423231115    15.055910274
 H       22.647906477    14.346015277    14.139865686
 H       23.231292273    15.933125395    14.695144459
 H       22.760549511    16.446421972    10.418664274
 H       24.027823693    16.472175389    11.672591208
 H       23.294389327    14.925745925    11.172805697
 H        9.927133517    10.232307786    10.399555640
 H        9.064149862     9.385274395     9.091364463
 H       10.766164932     8.988858892     9.436331518
 H       11.238164639    11.111537857     5.762583923
 H       11.726840864     9.602767477     6.569307569
 H       10.024105397     9.847839850     6.102484135
 H       -1.941434396    13.543079667    -2.212581164
 H       -3.364018473    12.878865666    -3.059312999
 H       -3.469522455    14.453827814    -2.231968657
 H       -5.806365373    12.204610957     0.475120722
 H       -5.836760323    13.637819012    -0.578743511
 H       -5.904106268    12.007141712    -1.294935129
 H       -0.287935487    -0.339958236    -2.453322424
 H       -0.289258683    -1.899276870    -1.588766488
 H       -1.738769538    -0.861492576    -1.564779370
 H       -0.316577071    -0.373167986     2.444028845
 H       -1.706641746    -1.005375103     1.523660270
 H       -0.182278390    -1.922073805     1.574479311

