139   

Si        0.000000000     0.000000000     0.000000000
 C        1.870199956     0.000000000     0.000000000
 C       -0.594105386     1.747689381     0.000000000
 C       -0.025522631     2.674414491    -0.881868367
 C       -0.460882608     3.998432374    -0.896562846
 C       -1.471616564     4.428639385    -0.031780697
 C       -2.040854039     3.499489737     0.848240049
 C       -1.610294842     2.174449051     0.862886318
 C       -1.955624772     5.804462433    -0.015426066
 C       -1.493836400     6.784615465    -0.810638474
 C       -1.978439232     8.160746461    -0.793793736
 C       -1.410356882     9.087791401    -1.677276698
 C       -1.842047747    10.412149602    -1.695757196
 C       -2.869618881    10.832715352    -0.843914275
 C       -3.438919309     9.908066143     0.038906632
 C       -2.990128826     8.588956728     0.069855260
Si       -3.461866233    12.580495409    -0.846595801
 C       -5.123381909    12.567804905    -0.072591564
 C       -5.481594783    13.231904585     1.032792471
 C       -6.826180719    13.189161674     1.613454387
 C       -7.077366494    13.931167672     2.777476547
 C       -8.328229338    13.929167504     3.370812664
 C       -9.389117766    13.223790720     2.773657587
 C       -9.150668673    12.490906376     1.604632908
 C       -7.875807339    12.465228549     1.045453331
 N      -10.648346837    13.267085169     3.441812416
 C      -11.248770967    14.617579400     3.455580311
 C      -11.609491888    12.220995882     3.052903768
 C      -11.730667670    15.107973535     2.075492546
 C      -11.896257706    16.639693279     2.043675125
 N      -10.830046653    17.357414802     1.314502941
 C       -9.530917687    17.241693129     1.866606080
 C       -9.353086346    17.552484205     3.230297227
 C       -8.098801227    17.452812720     3.810885797
 C       -6.973283899    17.110864752     3.047363894
 C       -7.148585439    16.839695445     1.687390906
 C       -8.405035611    16.905060063     1.097608809
 C      -10.933526029    17.178296711    -0.144332084
 C       -5.669177956    17.018495776     3.708300706
 C       -4.531014673    16.700512817     3.077653657
Si       -2.878199813    16.572308564     3.858669599
 C       -2.286867706    14.841924637     3.601262456
 C       -3.172006283    13.761911776     3.712368518
 C       -2.724998193    12.456623056     3.517992442
 C       -1.383403213    12.197450319     3.208042794
 C       -0.502289141    13.278876737     3.102738738
 C       -0.945560378    14.585694432     3.301017348
 C       -0.947537451    10.817942576     3.010532911
 C        0.316703997    10.471800606     2.715287874
 C        0.802477287     9.112774537     2.508716483
 C       -0.015712266     7.984772522     2.597096288
 C        0.508789563     6.707914008     2.388527117
 C        1.866692266     6.533600262     2.105720139
 C        2.689649421     7.664771937     2.018163466
 C        2.161052847     8.937101411     2.209899230
Si        2.600588805     4.863919088     1.823487819
 C        1.436732525     3.534207129     2.420779647
 C        2.953012205     4.655444027     0.000702913
 C        4.201082641     4.730650865     2.785750155
 C       -1.745666093    17.795455921     3.016340860
 C       -2.944452120    16.914187921     5.691904435
 C       -2.257023188    13.693893940     0.025795998
 C       -3.669654451    13.166610016    -2.612041516
 C       -0.641989551    -0.847836086    -1.535506564
 C       -0.610211287    -0.901047520     1.519519356
 H        0.770261361     2.398692836    -1.579664924
 H       -0.009669293     4.699824924    -1.597174189
 H       -2.831080645     3.812035710     1.528142115
 H       -2.093225640     1.494354174     1.569385651
 H       -2.751967289     6.001609749     0.707633146
 H       -0.693638451     6.589993192    -1.530772939
 H       -0.615475828     8.774964207    -2.351362264
 H       -1.353845254    11.094757818    -2.395848559
 H       -4.240407554    10.184448717     0.732470134
 H       -3.441684269     7.890649307     0.771672156
 H       -5.846989416    11.938529368    -0.616295508
 H       -4.782731465    13.867500721     1.595262190
 H       -6.271726266    14.508540841     3.237464405
 H       -8.498531268    14.481234341     4.293541041
 H       -9.952208008    11.939251825     1.123985456
 H       -7.708615163    11.878072036     0.142050108
 H      -12.463488057    12.249909087     3.751554370
 H      -11.130868198    11.231797288     3.164548671
 H      -11.996449997    12.312071438     2.026936455
 H      -11.958933778    17.427783983    -0.466891785
 H      -10.698238167    16.159530823    -0.491575516
 H      -10.257129496    17.892712043    -0.647372524
 H      -10.203073085    17.870569710     3.828214381
 H       -7.985535710    17.667576600     4.873626662
 H       -6.292092319    16.560558377     1.070138188
 H       -8.501415953    16.661937968     0.043663114
 H       -5.711870460    17.236840327     4.783282894
 H       -4.519605970    16.493870560     1.994238143
 H       -4.230448490    13.902802976     3.956032289
 H       -3.430029931    11.630554862     3.602444938
 H        0.546254032    13.108001151     2.865085333
 H       -0.206615876    15.385719938     3.207276117
 H       -1.730178129    10.062115881     3.110218118
 H        1.087428190    11.243210514     2.608612712
 H       -1.075562553     8.096055365     2.818138268
 H       -0.182627771     5.862176829     2.451106466
 H        3.757536242     7.590340215     1.796460737
 H        2.813379715     9.804397039     2.130106524
 H      -12.092229128    14.605962988     4.179816989
 H      -10.490128542    15.324851547     3.866783011
 H      -11.007345141    14.787755314     1.298797994
 H      -12.682713896    14.616688623     1.811040697
 H      -12.866642625    16.908497402     1.567482165
 H      -11.951707195    17.053688258     3.075209432
 H        2.271490098    -1.026684093     0.062917673
 H        2.269395387     0.567768662     0.860532154
 H        2.277589838     0.460715092    -0.916906094
 H        1.890503617     2.531815308     2.333314242
 H        0.501082388     3.522733941     1.827472924
 H        1.158846031     3.683157503     3.478672844
 H        2.024232099     4.733786553    -0.592973394
 H        3.648596427     5.429788455    -0.366622595
 H        3.402454213     3.669518559    -0.209083913
 H        4.032281812     4.905765820     3.863508996
 H        4.649202687     3.727792879     2.677111489
 H        4.947194672     5.467879465     2.443471715
 H       -1.610186799    17.554890409     1.946719710
 H       -2.155213657    18.820545337     3.074459779
 H       -0.746364626    17.813939789     3.485224944
 H       -3.615754553    16.207169804     6.212372401
 H       -1.945292091    16.815157600     6.153511563
 H       -3.305203129    17.937005479     5.899891289
 H       -2.161204622    13.426792646     1.097247787
 H       -1.247128711    13.623229180    -0.415446861
 H       -2.572262252    14.751445905    -0.022243486
 H       -4.325259641    12.489297802    -3.187164852
 H       -4.120521982    14.174300108    -2.646022740
 H       -2.700378912    13.216799342    -3.137119481
 H       -0.297405472    -0.338499467    -2.453173448
 H       -0.302652337    -1.897225162    -1.588252000
 H       -1.746876478    -0.853298863    -1.558365008
 H       -0.296404672    -0.387394113     2.445993102
 H       -1.711816324    -0.976487458     1.533803015
 H       -0.210036486    -1.929949666     1.560226126

