139   

Si        0.000000000     0.000000000     0.000000000
 C        1.870092524     0.000000000     0.000000000
 C       -0.630095057     1.734663756     0.000000000
 C        0.084850344     2.749599723     0.645327125
 C       -0.389561789     4.060289535     0.646327420
 C       -1.594924894     4.386058858     0.017393904
 C       -2.312515346     3.367235822    -0.621973812
 C       -1.837062503     2.057936127    -0.631853498
 C       -2.126210338     5.745269407    -0.004313507
 C       -1.521856442     6.800346646     0.567119022
 C       -2.030021008     8.167175605     0.560390297
 C       -1.271988442     9.152459937     1.206069599
 C       -1.702453908    10.474220325     1.234823673
 C       -2.921834663    10.838454620     0.647788912
 C       -3.684667907     9.856896831     0.010435109
 C       -3.237101583     8.535344475    -0.039393142
Si       -3.420993599    12.608503333     0.728077507
 C       -5.212913278    12.895782135     0.491008562
 C       -5.703411126    13.646536719    -0.503985809
 C       -7.126058696    13.900747511    -0.728364731
 C       -7.495199383    14.709709029    -1.814776300
 C       -8.825106320    14.985711805    -2.077617287
 C       -9.831705042    14.499700158    -1.216683116
 C       -9.466147773    13.694641266    -0.126754106
 C       -8.128030479    13.385091034     0.094298836
 N      -11.175920918    14.809139362    -1.528819664
 C      -11.443601121    16.241719868    -1.791374038
 C      -12.208017588    14.172465108    -0.693839706
 C      -10.659906068    17.248328215    -0.929694871
 C      -10.843007788    17.007557294     0.578852391
 N      -10.164125697    18.008537149     1.417202852
 C       -8.753849742    18.007701479     1.427506944
 C       -8.050440883    16.785107631     1.447669825
 C       -6.664233399    16.767901805     1.457999466
 C       -5.923212230    17.959305116     1.482791634
 C       -6.623781359    19.168190420     1.489809926
 C       -8.012634715    19.202738230     1.472917181
 C      -10.829217392    19.321567810     1.383550039
 C       -4.458027329    17.903307149     1.493102892
 C       -3.676242790    18.991803502     1.516555228
Si       -1.846265581    19.048030911     1.531458770
 C       -1.118426136    17.353765596     1.509833579
 C       -0.912378937    16.668802173     2.715221866
 C       -0.364087992    15.389585562     2.716068799
 C        0.040645907    14.781761155     1.519784333
 C       -0.153739469    15.472733834     0.320878549
 C       -0.737644217    16.739699069     0.313209058
 C        0.609411947    13.438945347     1.576971690
 C        1.002799554    12.728640882     0.506222044
 C        1.571589182    11.386050533     0.561982828
 C        1.765435062    10.696225617     1.761474523
 C        2.313220748     9.413047190     1.765197262
 C        2.635932983     8.774169713     0.564262112
 C        2.425024664     9.456889378    -0.641373857
 C        1.903609079    10.747542563    -0.640589826
Si        3.362057357     7.076568445     0.534949564
 C        3.143226342     6.246098975     2.196520460
 C        2.470873564     6.064883664    -0.759311479
 C        5.178494032     7.205182850     0.122705516
 C       -1.278660091    20.000929490     0.025471677
 C       -1.294369424    19.949638438     3.073969861
 C       -3.009313653    13.311837560     2.409420940
 C       -2.468887483    13.476394701    -0.625132515
 C       -0.604528452    -0.904431516    -1.520461449
 C       -0.632464745    -0.854127235     1.537002847
 H        1.030795601     2.557140847     1.158907007
 H        0.187729246     4.831453561     1.154810010
 H       -3.253312651     3.597983577    -1.118394684
 H       -2.439266470     1.306725546    -1.149837392
 H       -3.076854205     5.861933472    -0.530491400
 H       -0.568891788     6.676168357     1.092867249
 H       -0.322578633     8.889247116     1.673494059
 H       -1.051381386    11.201660081     1.732003997
 H       -4.642221637    10.088516355    -0.464178269
 H       -3.842653620     7.788368876    -0.548430133
 H       -5.869222358    12.410984712     1.227814698
 H       -5.062013610    14.141010334    -1.248048842
 H       -6.725087494    15.119043826    -2.469693951
 H       -9.097604553    15.576210272    -2.948531875
 H      -10.215065997    13.301810315     0.553209179
 H       -7.865563975    12.743564178     0.936811463
 H      -13.197981927    14.348431375    -1.149515873
 H      -12.233327736    14.528632360     0.347569281
 H      -12.052905011    13.078169077    -0.693487722
 H      -11.922717167    19.186338691     1.431579758
 H      -10.592368671    19.916794362     0.487087488
 H      -10.538879378    19.896098806     2.282484530
 H       -8.593228131    15.841421175     1.436399675
 H       -6.145041806    15.805862275     1.444972929
 H       -6.078186861    20.112573534     1.510317392
 H       -8.508885171    20.167074056     1.476485379
 H       -4.057244214    16.880787737     1.477676008
 H       -4.121622722    20.001259546     1.530463391
 H       -1.185886477    17.101115585     3.682342091
 H       -0.231515799    14.865831485     3.661052008
 H        0.158223357    15.028959967    -0.623097653
 H       -0.876626116    17.224639879    -0.657012052
 H        0.706060827    13.025517755     2.585279053
 H        0.916904783    13.145057520    -0.502238990
 H        1.506885436    11.164301496     2.709553463
 H        2.462998860     8.932722367     2.735769312
 H        2.652233055     9.005413339    -1.611550195
 H        1.745896585    11.261419954    -1.587236081
 H      -11.198396543    16.416543395    -2.867404475
 H      -12.534278875    16.432287653    -1.692621387
 H       -9.577423997    17.204800077    -1.172862546
 H      -10.977104624    18.273694526    -1.195006146
 H      -11.923504465    17.009414996     0.845153444
 H      -10.459283290    15.997673539     0.856895252
 H        2.268107537    -1.028665380    -0.057403480
 H        2.280244050     0.461912794     0.914876636
 H        2.269454957     0.559286116    -0.865323104
 H        3.507686951     5.203579460     2.170243898
 H        2.081379062     6.218992172     2.500534242
 H        3.705233013     6.769611225     2.989430245
 H        1.377591484     6.054426822    -0.584788735
 H        2.632121505     6.466307709    -1.775259451
 H        2.813443307     5.014927194    -0.760320643
 H        5.721376804     7.803929414     0.875928650
 H        5.654513839     6.209747441     0.082977387
 H        5.337815572     7.689473309    -0.857262596
 H       -1.673035913    19.559600985    -0.907073923
 H       -1.620930318    21.050204118     0.062325163
 H       -0.176626791    20.012663828    -0.047702668
 H       -1.707780811    19.485391112     3.987066195
 H       -0.193543093    19.947298359     3.165093202
 H       -1.625713085    21.003048450     3.062995320
 H       -3.576536220    12.803703222     3.208448088
 H       -1.934477196    13.205740195     2.639784713
 H       -3.249062844    14.390525478     2.459119539
 H       -2.813308121    13.160979719    -1.625445140
 H       -2.571423115    14.574495072    -0.553082393
 H       -1.392928527    13.232891058    -0.557348504
 H       -0.315133309    -0.371627633    -2.444294746
 H       -0.177278831    -1.921441426    -1.576134153
 H       -1.703717083    -1.007950891    -1.525231371
 H       -0.286261331    -0.342214143     2.452811468
 H       -1.737006269    -0.865061475     1.564571432
 H       -0.286217500    -1.901246755     1.587605771

