139   

Si        0.000000000     0.000000000     0.000000000
 C        1.868981559     0.000000000     0.000000000
 C       -0.662191925     1.722878486     0.000000000
 C        0.179834408     2.835063775    -0.087694995
 C       -0.347626855     4.126728129    -0.085553050
 C       -1.726228758     4.335049435     0.002722180
 C       -2.569231289     3.218520019     0.089342297
 C       -2.046013282     1.928699460     0.087609888
 C       -2.324291873     5.666059098     0.008636460
 C       -1.634411899     6.816866056    -0.068295731
 C       -2.237261757     8.146040958    -0.062008176
 C       -1.400782359     9.266846988    -0.148122642
 C       -1.931679955    10.554608796    -0.145645250
 C       -3.315431100    10.750100830    -0.065719690
 C       -4.153428726     9.632935341     0.019101231
 C       -3.618131354     8.345687251     0.023895135
Si       -4.038118024    12.447976662    -0.061066766
 C       -5.726093013    12.343413496    -0.765208834
 C       -6.857053387    12.683956080    -0.133459960
 C       -8.190725645    12.586697066    -0.729159709
 C       -9.304863948    12.973138739     0.030164284
 C      -10.587327074    12.900195333    -0.487348442
 C      -10.797993893    12.476026217    -1.818240956
 C       -9.680245898    12.087734488    -2.581563021
 C       -8.405884098    12.124496934    -2.030133772
 N      -12.102922723    12.407334713    -2.328105132
 C      -13.085112404    13.391320019    -1.841379969
 C      -12.257853039    12.043047287    -3.743216604
 C      -12.674865319    14.865363346    -1.998585479
 C      -12.832137173    15.415222722    -3.426439783
 N      -14.210709790    15.743462042    -3.829237379
 C      -14.940737057    16.617205039    -3.009390318
 C      -14.273353390    17.663289951    -2.334167976
 C      -14.978705078    18.534678496    -1.521043157
 C      -16.370976824    18.435654734    -1.383735984
 C      -17.032804425    17.418612384    -2.076547723
 C      -16.339941012    16.524302256    -2.882342010
 C      -14.942529154    14.632030778    -4.452468441
 C      -17.067515406    19.382536605    -0.511073879
 C      -18.391261481    19.380496587    -0.306205376
Si      -19.304012495    20.544013827     0.774980942
 C      -20.158652603    19.559065310     2.080698318
 C      -19.626183437    18.331960938     2.495825451
 C      -20.265503766    17.583219888     3.480548836
 C      -21.445549801    18.044374270     4.079117247
 C      -21.971610630    19.271373139     3.664993866
 C      -21.335995798    20.022107636     2.676480028
 C      -22.078388899    17.223589258     5.106525698
 C      -23.210519250    17.546967813     5.754432292
 C      -23.842943199    16.725806581     6.781774283
 C      -23.317159926    15.498834441     7.196091412
 C      -23.954834016    14.746439472     8.181758616
 C      -25.140195359    15.201026950     8.769757152
 C      -25.669814109    16.429406375     8.355239894
 C      -25.026754230    17.182486327     7.375909290
Si      -25.985086436    14.205211294    10.075002086
 C      -25.665953842    12.384088352     9.797692648
 C      -25.306180922    14.720405069    11.737891569
 C      -27.828662127    14.511165905    10.021353233
 C      -18.159844798    21.764002907     1.604517400
 C      -20.551258340    21.454105461    -0.277017220
 C       -4.055920648    13.081102408     1.695135715
 C       -3.029400564    13.591409665    -1.140887463
 C       -0.619286870    -0.874873744    -1.531017317
 C       -0.611702954    -0.879751685     1.531742550
 H        1.266318207     2.735393796    -0.159087002
 H        0.329958894     4.975971677    -0.154126411
 H       -3.646492978     3.358918267     0.158964652
 H       -2.752910123     1.097093785     0.157358268
 H       -3.416036496     5.675605188     0.082981453
 H       -0.543147551     6.809122533    -0.142408827
 H       -0.322950459     9.132938846    -0.216506367
 H       -1.230724288    11.390819221    -0.213083955
 H       -5.242989744     9.727762130     0.082027949
 H       -4.290481198     7.492245648     0.093043724
 H       -5.745642351    11.962452699    -1.799312169
 H       -6.869759545    13.067572728     0.895352233
 H       -9.163572034    13.326794317     1.052331659
 H      -11.431570170    13.171232161     0.140389119
 H       -9.795428581    11.749341731    -3.605717144
 H       -7.559193473    11.800588588    -2.638273195
 H      -13.327313844    11.999844156    -4.008280467
 H      -11.851302521    11.025437900    -3.899308128
 H      -11.751134742    12.733848413    -4.437059665
 H      -14.262854905    14.039935632    -5.087559598
 H      -15.721755491    15.044917689    -5.121432994
 H      -15.424743247    13.955939985    -3.727457614
 H      -13.200368102    17.790133256    -2.447759854
 H      -14.439736603    19.321390615    -0.991454381
 H      -18.116218560    17.317920384    -1.988416026
 H      -16.895900616    15.749245290    -3.398920754
 H      -16.393841824    20.105783327    -0.032635852
 H      -19.042198506    18.643198668    -0.803621832
 H      -18.707231274    17.922646323     2.062912611
 H      -19.840324280    16.629397434     3.787571368
 H      -22.887496256    19.651929766     4.113351377
 H      -21.796080875    20.972146072     2.391662939
 H      -21.556522639    16.288299383     5.330035601
 H      -23.732731721    18.481983820     5.531077996
 H      -22.399249303    15.119624692     6.750339611
 H      -23.493849265    13.796130759     8.465217030
 H      -26.593298155    16.834826385     8.777823287
 H      -25.453351194    18.135596486     7.068634712
 H      -14.058866092    13.205170739    -2.345140053
 H      -13.268246780    13.170905069    -0.761220292
 H      -13.270401837    15.481621553    -1.293539838
 H      -11.620724421    14.995849557    -1.676974511
 H      -12.225181019    16.347605694    -3.532799424
 H      -12.402927952    14.702542530    -4.164287602
 H        2.266489402    -1.030412838     0.028791156
 H        2.273576503     0.534291251     0.878218450
 H        2.275280627     0.484617481    -0.905550460
 H      -26.219867388    11.766223362    10.526710448
 H      -24.595380122    12.134915596     9.900583676
 H      -25.985960858    12.071684663     8.787120317
 H      -24.216017615    14.550561932    11.797283509
 H      -25.482087446    15.794312512    11.929051342
 H      -25.778280709    14.152847309    12.558906576
 H      -28.240165687    14.297355838     9.018264399
 H      -28.361537286    13.866339536    10.742666040
 H      -28.078021270    15.557900011    10.268247426
 H      -17.408000914    21.249450540     2.230262857
 H      -17.618445856    22.377623841     0.862650437
 H      -18.718234520    22.452925610     2.263630011
 H      -21.300544174    20.762249878    -0.702341810
 H      -21.094515266    22.218944374     0.304652002
 H      -20.058128166    21.967849171    -1.122493883
 H       -4.650287402    12.422083320     2.354141005
 H       -3.034848206    13.128562012     2.114637564
 H       -4.488204034    14.095673389     1.754048041
 H       -2.924244294    13.189777744    -2.164883092
 H       -3.507372037    14.584607312    -1.222562221
 H       -2.014044903    13.744236727    -0.735713030
 H       -0.273838258    -0.366515898    -2.449550087
 H       -0.259626914    -1.917990756    -1.571939520
 H       -1.722923163    -0.900215212    -1.564328155
 H       -0.273433524    -0.364782308     2.449398638
 H       -1.714675740    -0.920615695     1.564341163
 H       -0.238069702    -1.917887582     1.575348728

