139   

Si        0.000000000     0.000000000     0.000000000
 C        1.869014031     0.000000000     0.000000000
 C       -0.660284223     1.723702665     0.000000000
 C        0.180468701     2.832577560    -0.131718960
 C       -0.343967613     4.125481121    -0.128682378
 C       -1.718350491     4.338331813     0.003950506
 C       -2.560144555     3.225121603     0.134034624
 C       -2.039898461     1.934060322     0.131377270
 C       -2.312812341     5.670908814     0.012612930
 C       -1.623103418     6.818439913    -0.103194877
 C       -2.221305478     8.149529420    -0.094090365
 C       -1.385906896     9.265998102    -0.223624039
 C       -1.913107438    10.556026241    -0.220190995
 C       -3.290073502    10.759034075    -0.081153524
 C       -4.127603473     9.643962467     0.049459126
 C       -3.597927551     8.355197228     0.040983541
Si       -4.029832028    12.449587508    -0.071423622
 C       -5.172740009    12.636751823    -1.490411317
 C       -5.427889606    11.682957417    -2.396001677
 C       -6.342416932    11.839813877    -3.527246885
 C       -6.521857005    10.760533900    -4.405721735
 C       -7.374995118    10.854610501    -5.491932342
 C       -8.052852901    12.063971955    -5.765269882
 C       -7.873785203    13.147750694    -4.884323575
 C       -7.047518042    13.020260700    -3.775025352
 N       -8.911631982    12.135301945    -6.870808226
 C       -8.507701505    11.429722164    -8.098125037
 C       -9.622793590    13.399491168    -7.098367656
 C       -7.069907657    11.697244641    -8.580729565
 C       -6.864947313    13.061097458    -9.263097682
 N       -7.544499878    13.255325808   -10.560307119
 C       -8.881807856    13.718594366   -10.470499221
 C       -9.084818119    14.990455933    -9.897027742
 C      -10.365576856    15.503948846    -9.778488574
 C      -11.476413450    14.790128659   -10.254151123
 C      -11.265676865    13.543974933   -10.849014487
 C       -9.985795868    13.013635844   -10.971793572
 C       -7.300717278    12.170718797   -11.523195110
 C      -12.809569629    15.378859526   -10.103699536
 C      -13.938708959    14.790773505   -10.518584294
Si      -15.625971556    15.487290800   -10.352418301
 C      -16.620037079    14.310479402    -9.337400012
 C      -15.984350821    13.466295448    -8.418217465
 C      -16.728230220    12.575529625    -7.648705368
 C      -18.122539072    12.512487289    -7.771876004
 C      -18.753401834    13.360068255    -8.687069370
 C      -18.011510648    14.250716292    -9.462356436
 C      -18.857772138    11.562365599    -6.943380342
 C      -20.191444484    11.399082302    -6.966240193
 C      -20.925927725    10.448671669    -6.137359347
 C      -20.295186008     9.601240705    -5.222329236
 C      -21.036673325     8.707680966    -4.450001512
 C      -22.427313021     8.635543991    -4.582490001
 C      -23.061725330     9.482940510    -5.499780499
 C      -22.319594455    10.379609064    -6.264381572
Si      -23.416416914     7.455238256    -3.563735932
 C      -22.357927752     6.003407196    -3.047200146
 C      -24.032244675     8.358772951    -2.048675881
 C      -24.866877786     6.821651585    -4.558762533
 C      -15.611798917    17.147673645    -9.500159362
 C      -16.354963859    15.653065394   -12.063823772
 C       -4.984347740    12.684625961     1.517692510
 C       -2.703977764    13.759795705    -0.205182532
 C       -0.621533442    -0.873090039    -1.531000636
 C       -0.609798289    -0.881272767     1.531666961
 H        1.263755935     2.729341847    -0.238642423
 H        0.332696114     4.972042866    -0.231421168
 H       -3.634054508     3.369030378     0.238675663
 H       -2.745736000     1.105227158     0.236149549
 H       -3.401235522     5.684509376     0.124023112
 H       -0.534956271     6.805906608    -0.214215354
 H       -0.311581250     9.128411270    -0.329823924
 H       -1.212579932    11.388374838    -0.329066784
 H       -5.212310387     9.742207355     0.161567625
 H       -4.269364770     7.504478280     0.142944826
 H       -5.653934055    13.624652698    -1.550245181
 H       -4.955598677    10.689864234    -2.358912085
 H       -5.990010592     9.825163301    -4.224738085
 H       -7.525940586     9.990626338    -6.132283699
 H       -8.377497352    14.092898930    -5.057574912
 H       -6.937512204    13.869170222    -3.098864252
 H      -10.322597360    13.291496571    -7.948140995
 H       -8.957706547    14.251328019    -7.314690092
 H      -10.236100162    13.637499005    -6.209973603
 H       -6.211832587    12.009312904   -11.610152442
 H       -7.662844636    12.485568299   -12.518584836
 H       -7.775692646    11.211967722   -11.263415528
 H       -8.226887219    15.569038812    -9.559167387
 H      -10.508442195    16.485138938    -9.324624984
 H      -12.113063989    12.971673801   -11.230143859
 H       -9.855942462    12.044564081   -11.444531490
 H      -12.796600984    16.360731151    -9.612669093
 H      -13.919417520    13.804720032   -11.011572419
 H      -14.897976592    13.472911079    -8.278404984
 H      -16.217311614    11.922907808    -6.942650379
 H      -19.835359505    13.330650242    -8.802302276
 H      -18.559603492    14.886291642   -10.163054499
 H      -18.234752401    10.963457154    -6.272205797
 H      -20.814886701    11.997464007    -7.637118920
 H      -19.213448304     9.633510657    -5.103734083
 H      -20.486857917     8.072508945    -3.749811899
 H      -24.145249554     9.471053496    -5.646785070
 H      -22.831232034    11.031233954    -6.970353102
 H       -8.631825503    10.336623472    -7.903484999
 H       -9.233548542    11.672935603    -8.907233810
 H       -6.370357244    11.630542056    -7.720049538
 H       -6.763038422    10.882583033    -9.263101247
 H       -7.168081706    13.874501363    -8.566702657
 H       -5.774857323    13.211115563    -9.455199597
 H        2.266600213    -1.029960177     0.041408299
 H        2.273095458     0.544966499     0.871946181
 H        2.275787926     0.473614038    -0.911084073
 H      -22.954000129     5.248479315    -2.504103868
 H      -21.533646952     6.313436566    -2.381215408
 H      -21.909522178     5.503031463    -3.924545491
 H      -23.193163315     8.744246431    -1.441665499
 H      -24.662781158     9.223207477    -2.323882977
 H      -24.635507155     7.696965081    -1.402738585
 H      -24.530237059     6.355906137    -5.502774418
 H      -25.434722149     6.059138547    -3.996604739
 H      -25.570470473     7.631369532    -4.819486499
 H      -15.176994051    17.076715266    -8.486442518
 H      -15.022609026    17.888852950   -10.068966930
 H      -16.635240539    17.549711965    -9.389384429
 H      -16.456451724    14.668695758   -12.555839095
 H      -17.356548645    16.116844866   -12.036244176
 H      -15.715645400    16.281927600   -12.710124157
 H       -5.802443982    11.947613864     1.609877284
 H       -4.328387195    12.563552877     2.398511892
 H       -5.436360227    13.690498190     1.572505826
 H       -2.144080766    13.669844480    -1.153763750
 H       -3.139537739    14.774527105    -0.176348483
 H       -1.978683020    13.686900492     0.624286129
 H       -0.276224410    -0.364861950    -2.449623102
 H       -0.263690110    -1.916799953    -1.572838526
 H       -1.725299855    -0.896472127    -1.563190227
 H       -0.269937883    -0.367429958     2.449388671
 H       -1.712671626    -0.922444008     1.566076249
 H       -0.236104937    -1.919498161     1.573430204

