139   

Si        0.000000000     0.000000000     0.000000000
 C        1.869304677     0.000000000     0.000000000
 C       -0.651862866     1.727157387     0.000000000
 C        0.178180522     2.821057161     0.262717050
 C       -0.334322703     4.118484390     0.257891618
 C       -1.686720778     4.351441209    -0.004791390
 C       -2.518108337     3.253415832    -0.264340959
 C       -2.009428169     1.957536596    -0.260996966
 C       -2.267293007     5.690166276    -0.020521578
 C       -1.583339866     6.823728544     0.210354842
 C       -2.164565427     8.162307287     0.194477476
 C       -3.518188238     8.392768523    -0.068655442
 C       -4.032314458     9.688682177    -0.073936584
 C       -3.199241529    10.784068073     0.178143484
 C       -1.843214130    10.557164877     0.441981026
 C       -1.334252229     9.260684230     0.452726312
Si       -3.880838094    12.499298464     0.170927811
 C       -2.489113445    13.676221727    -0.005349600
 C       -2.161047087    14.632208973     0.874051009
 C       -1.040063518    15.557044655     0.700668972
 C       -0.792513475    16.519019766     1.690807399
 C        0.255182633    17.416929456     1.574279055
 C        1.135797950    17.348652320     0.470730618
 C        0.889550823    16.380217969    -0.523118204
 C       -0.193834841    15.519597309    -0.411311744
 N        2.189690513    18.262240079     0.366180988
 C        2.827809230    18.735863616     1.603877931
 C        3.094011044    18.137098834    -0.783266840
 C        3.292986418    17.636828249     2.577506372
 C        4.589142511    16.917434470     2.164450918
 N        5.816662642    17.738368593     2.134812597
 C        6.065808047    18.396260964     0.903888546
 C        6.280815773    17.582967457    -0.227585761
 C        6.529782182    18.159672384    -1.461670457
 C        6.604034622    19.554003105    -1.605118540
 C        6.419658234    20.353507866    -0.474674428
 C        6.167295238    19.788754169     0.771200266
 C        6.025803077    18.538151259     3.350724109
 C        6.869891845    20.111244844    -2.933694145
 C        6.962542237    21.421958709    -3.191533784
Si        7.293392080    22.159976517    -4.836712483
 C        5.861561906    23.240820967    -5.265904628
 C        4.604844343    22.998739339    -4.700704801
 C        3.517440843    23.810867127    -5.019757405
 C        3.659113617    24.874093889    -5.916001007
 C        4.917969667    25.110462357    -6.484449669
 C        6.007543152    24.303971977    -6.164702097
 C        2.549348927    25.749528336    -6.279002506
 C        1.296735313    25.631628337    -5.806893682
 C        0.186452139    26.506544476    -6.169325425
 C        0.326730275    27.572785790    -7.061788773
 C       -0.762159551    28.383975484    -7.379868754
 C       -2.019893892    28.140584708    -6.818308064
 C       -2.163341124    27.071430681    -5.924699050
 C       -1.072765490    26.267449202    -5.603070135
Si       -3.466794189    29.209682677    -7.234043305
 C       -3.224230863    30.000647313    -8.910565389
 C       -5.025238339    28.177866130    -7.272439360
 C       -3.614935399    30.534849138    -5.925131449
 C        8.860337105    23.168757511    -4.713543656
 C        7.474810813    20.855535374    -6.159091456
 C       -5.020784668    12.726433343    -1.292141441
 C       -4.820772484    12.771826551     1.761182375
 C       -0.606899416    -0.885008914    -1.530813876
 C       -0.626739712    -0.868597983     1.531104288
 H        1.244161037     2.702379320     0.475351669
 H        0.334077057     4.953044038     0.462612271
 H       -3.574846126     3.412738249    -0.471171586
 H       -2.706445338     1.141256437    -0.470249446
 H       -3.338514117     5.721185728    -0.240678608
 H       -0.512186617     6.792973043     0.430764845
 H       -4.184617414     7.556667065    -0.272005385
 H       -5.098741898     9.806536720    -0.284537384
 H       -1.147605147    11.377789011     0.647427273
 H       -0.277932545     9.102892059     0.662476980
 H       -1.915084156    13.539850787    -0.936209575
 H       -2.716112837    14.795256234     1.807363690
 H       -1.444667111    16.573628440     2.563151444
 H        0.393576288    18.178343933     2.335724384
 H        1.539117355    16.295621071    -1.388187510
 H       -0.371494940    14.789890011    -1.203360698
 H        3.832289940    18.960949863    -0.778523723
 H        2.513160065    18.237992435    -1.718634601
 H        3.650108027    17.185531765    -0.805870228
 H        5.971112853    17.870546930     4.228710128
 H        5.303659484    19.357603245     3.489610459
 H        7.044777861    18.965309318     3.330958798
 H        6.260627829    16.499900162    -0.120844298
 H        6.686969214    17.518501226    -2.329685072
 H        6.477277384    21.439939589    -0.560128255
 H        6.035742109    20.438241888     1.631630470
 H        6.987845397    19.343320893    -3.709510367
 H        6.842631287    22.170672775    -2.391284646
 H        4.433090761    22.178645245    -3.995132437
 H        2.550447333    23.606275425    -4.563009160
 H        5.048946188    25.933285925    -7.184707403
 H        6.965579112    24.537277651    -6.636954502
 H        2.805168792    26.541790640    -6.988707066
 H        1.040915339    24.838259004    -5.098012255
 H        1.293425566    27.780431321    -7.517198702
 H       -0.589520635    29.203616511    -8.082863190
 H       -3.121851799    26.832504304    -5.455506909
 H       -1.204190849    25.442167956    -4.905305787
 H        3.684652803    19.395300420     1.335111850
 H        2.092281420    19.398560874     2.121786112
 H        3.409788963    18.076457397     3.585782477
 H        2.493049782    16.873574735     2.686183068
 H        4.786783930    16.085520157     2.883327193
 H        4.445389289    16.437258457     1.170761957
 H        2.267330569    -1.028491031    -0.065063133
 H        2.277355874     0.453090116     0.920731836
 H        2.271683891     0.564982817    -0.859995973
 H       -4.119746638    30.570583462    -9.216146202
 H       -3.034826566    29.239193618    -9.688702758
 H       -2.371079596    30.701421055    -8.913373472
 H       -4.928839566    27.335358951    -7.981267551
 H       -5.260882128    27.753097469    -6.281070610
 H       -5.895509886    28.779765477    -7.589114676
 H       -2.706297885    31.162207842    -5.883549126
 H       -4.472615985    31.201600534    -6.122567062
 H       -3.756896295    30.095213177    -4.921561780
 H        8.745716919    24.006125880    -4.001449179
 H        9.706045129    22.549279241    -4.362870756
 H        9.145859346    23.597663653    -5.689997972
 H        6.558543091    20.244127457    -6.250516704
 H        7.662981916    21.311394651    -7.148115052
 H        8.315664470    20.173136015    -5.941676459
 H       -4.506072993    12.495987187    -2.242513709
 H       -5.905458646    12.069961287    -1.224960206
 H       -5.382765901    13.768730791    -1.355959037
 H       -4.165531713    12.643192557     2.642032461
 H       -5.250515107    13.788262475     1.806312483
 H       -5.652908600    12.052695570     1.864064353
 H       -0.280631671    -0.363039166    -2.448835502
 H       -0.217014899    -1.917089322    -1.578578752
 H       -1.708975900    -0.944592544    -1.558442387
 H       -0.280779172    -0.360844323     2.449737189
 H       -1.730799981    -0.886366848     1.561581833
 H       -0.273978609    -1.913937552     1.574338362

