139   

Si        0.000000000     0.000000000     0.000000000
 C        1.869723389     0.000000000     0.000000000
 C       -0.626600470     1.736935647     0.000000000
 C        0.110149535     2.757431411    -0.611148862
 C       -0.360680923     4.069752058    -0.612581422
 C       -1.581261663     4.391912484    -0.012413638
 C       -2.320311782     3.368020858     0.594233852
 C       -1.850737183     2.056658452     0.600299585
 C       -2.111845322     5.751384066     0.009382185
 C       -1.498988585     6.817452800    -0.532705789
 C       -2.023512751     8.178880989    -0.514586680
 C       -3.241957085     8.511515246     0.082366433
 C       -3.703883313     9.828240563     0.075231166
 C       -2.957458532    10.839384642    -0.535477278
 C       -1.734411792    10.508626089    -1.136337265
 C       -1.274208682     9.195398776    -1.123297567
Si       -3.529637768    12.593343920    -0.568690354
 C       -2.360311829    13.642025249     0.374379042
 C       -1.259969161    13.188795090     0.989789995
 C       -0.327276055    14.028165141     1.742562532
 C        0.790024158    13.427774425     2.340978632
 C        1.704883318    14.174414690     3.064872654
 C        1.561082617    15.575322325     3.171021904
 C        0.440641908    16.179066972     2.567410590
 C       -0.493276474    15.407797115     1.887451828
 N        2.491207679    16.327636781     3.906012446
 C        3.860003407    15.797059440     4.030278002
 C        2.428128544    17.790489204     3.768574540
 C        4.592292878    15.567082755     2.696976923
 C        5.321236286    16.813200124     2.165439965
 N        6.647278175    17.064850323     2.758747199
 C        7.590738776    16.025569025     2.699150965
 C        7.598687523    15.150891713     1.590249504
 C        8.521827143    14.121333715     1.515729834
 C        9.500187233    13.949481169     2.506209766
 C        9.510154645    14.834607718     3.586980440
 C        8.579771752    15.861573304     3.687578371
 C        6.611837804    17.869641995     3.988691080
 C       10.449726578    12.843752964     2.375199003
 C       11.426272061    12.576601941     3.252605632
Si       12.618696070    11.194878711     3.096042423
 C       12.269367154    10.237833542     1.557624155
 C       11.868990777     8.899564647     1.599494631
 C       11.611194298     8.199087634     0.420805177
 C       11.741076602     8.821668895    -0.823147525
 C       12.139692836    10.164993307    -0.863047611
 C       12.401069497    10.865573030     0.310912452
 C       11.482141737     8.128963490    -2.081085612
 C       11.095597107     6.845922467    -2.182289079
 C       10.836643000     6.153161905    -3.440294370
 C       10.969920803     6.774840035    -4.684958511
 C       10.712060311     6.074523303    -5.862846140
 C       10.322560025     4.731467827    -5.822318275
 C       10.189013778     4.105958429    -4.576366097
 C       10.439861885     4.810017785    -3.401165276
Si        9.980452603     3.801617790    -7.380387195
 C       11.001888011     4.500093309    -8.781784460
 C       10.415880430     1.997416716    -7.155298758
 C        8.162520037     3.969413584    -7.778135364
 C       14.351324288    11.887844658     3.000106776
 C       12.462743708    10.107656394     4.607791028
 C       -3.590390405    13.181253505    -2.341362035
 C       -5.223587910    12.757090611     0.202851133
 C       -0.633922120    -0.854211104    -1.536045992
 C       -0.606720640    -0.900738347     1.521589242
 H        1.070621673     2.568079517    -1.098642829
 H        0.234766692     4.845813559    -1.090584902
 H       -3.273553730     3.596569450     1.067518994
 H       -2.470642337     1.301116526     1.090678367
 H       -3.076995190     5.858742454     0.512851597
 H       -0.533685339     6.707155543    -1.036209637
 H       -3.843374090     7.741454460     0.561897535
 H       -4.662383514    10.028303380     0.561850556
 H       -1.107914504    11.258982231    -1.629021216
 H       -0.321930266     8.956933408    -1.593548624
 H       -2.634447599    14.707188753     0.403359507
 H       -0.969828803    12.127288299     0.978339554
 H        0.936663626    12.350075351     2.248493160
 H        2.537211318    13.668501849     3.546214525
 H        0.283114656    17.250184439     2.633310325
 H       -1.361983640    15.898624160     1.446419923
 H        3.229597500    18.265251774     4.357806661
 H        1.469868161    18.150158164     4.189094019
 H        2.507387345    18.136830144     2.724881383
 H        5.840022128    18.652634579     3.907542551
 H        7.580846884    18.391234641     4.105043671
 H        6.419247586    17.278479437     4.899117352
 H        6.876703117    15.277205277     0.788275860
 H        8.494394950    13.441697739     0.662260491
 H       10.260047479    14.724121111     4.371615007
 H        8.624579613    16.523111903     4.546017279
 H       10.282520351    12.237253710     1.472503783
 H       11.572569774    13.195414278     4.150863071
 H       11.745851691     8.359767513     2.542442396
 H       11.304205294     7.156517896     0.480563442
 H       12.247517463    10.668172021    -1.822188251
 H       12.710158136    11.911553903     0.217697219
 H       11.627163811     8.739072390    -2.977557787
 H       10.950808301     6.235304373    -1.286060800
 H       11.277398694     7.817448450    -4.744477611
 H       10.831714288     6.615699627    -6.805606330
 H        9.888619804     3.058734543    -4.482602147
 H       10.328359628     4.306747723    -2.442439632
 H        4.444946801    16.478221437     4.686239117
 H        3.796281463    14.835716973     4.595611767
 H        5.314597745    14.733197227     2.816075165
 H        3.872927317    15.211502584     1.930860350
 H        5.464964126    16.719142901     1.061581679
 H        4.691706215    17.719386511     2.301090478
 H        2.269031236    -1.027010582     0.076032952
 H        2.269242817     0.575560467     0.854720321
 H        2.279583026     0.445526080    -0.923226671
 H       10.874158876     3.905426132    -9.703815268
 H       12.078408086     4.497322167    -8.531822893
 H       10.716531489     5.540016055    -9.018382137
 H       11.464874197     1.877109379    -6.828926070
 H        9.773790709     1.511840828    -6.399919162
 H       10.296009467     1.436995646    -8.099532364
 H        7.876733876     5.027879449    -7.915294520
 H        7.901955272     3.430047278    -8.705683865
 H        7.533523479     3.562068114    -6.966342874
 H       14.468945966    12.563981365     2.134175641
 H       14.607919314    12.462457623     3.907363434
 H       15.097533963    11.079917930     2.893123718
 H       11.438320255     9.705854510     4.710861793
 H       13.158610056     9.251277857     4.562517655
 H       12.689128621    10.670198094     5.531146040
 H       -2.593441869    13.140424700    -2.815674349
 H       -4.270634096    12.554216628    -2.945482728
 H       -3.947706521    14.223701431    -2.409288397
 H       -5.212591899    12.453809755     1.265692960
 H       -5.582802309    13.800916221     0.163336315
 H       -5.967563720    12.130498400    -0.319926678
 H       -0.288235348    -0.342944059    -2.452522228
 H       -0.287814304    -1.901452907    -1.586535258
 H       -1.738447694    -0.865230255    -1.563125139
 H       -0.311780832    -0.369504232     2.444740044
 H       -1.706433570    -0.997663202     1.529239082
 H       -0.185430763    -1.920316674     1.576637015

