139   

Si        0.000000000     0.000000000     0.000000000
 C        1.869109839     0.000000000     0.000000000
 C       -0.658340527     1.724408853     0.000000000
 C        0.184792736     2.832165164     0.126153262
 C       -0.337461220     4.125851304     0.123328011
 C       -1.711946409     4.340930223    -0.004913412
 C       -2.556040886     3.228915105    -0.129885697
 C       -2.038002829     1.936882973    -0.126538370
 C       -2.303756547     5.674677072    -0.013123324
 C       -1.611019885     6.820834933     0.099024939
 C       -2.206385832     8.153231515     0.090411052
 C       -1.367239019     9.268104023     0.215902391
 C       -1.891119472    10.559134362     0.212815160
 C       -3.269746124    10.762585400     0.091986694
 C       -4.110979994     9.650597365    -0.033157318
 C       -3.582926796     8.360993157    -0.037274193
Si       -4.002272196    12.457770754     0.083787594
 C       -5.654521797    12.305659595     0.861554414
 C       -6.822893492    12.604216026     0.280786447
 C       -8.121963208    12.465452764     0.945666518
 C       -9.281868235    12.809990509     0.235057831
 C      -10.533807070    12.696958524     0.818189556
 C      -10.651650574    12.210599510     2.130697016
 C       -9.502220290    11.862867005     2.847516023
 C       -8.249630098    12.000755466     2.256424535
 N      -11.983236583    12.126415691     2.655653466
 C      -12.683587198    10.918134158     2.165997902
 C      -12.077696858    12.294495736     4.116566558
 C      -12.170330999     9.592525258     2.764283261
 C      -12.417395988     8.395997794     1.825950687
 N      -11.235116264     7.963945362     1.054609535
 C      -10.774627951     8.846365291     0.053034854
 C      -11.710998959     9.415409358    -0.835326964
 C      -11.292561517    10.285012766    -1.829306974
 C       -9.932064626    10.563908165    -2.022244433
 C       -9.003150473     9.965987436    -1.165912138
 C       -9.409107065     9.114850082    -0.145876736
 C      -10.203801247     7.343485398     1.904167336
 C       -9.542759772    11.490372388    -3.087015411
 C       -8.275070707    11.826813188    -3.358094746
Si       -7.730643612    12.978221376    -4.675171362
 C       -6.837538010    14.339696020    -3.802678945
 C       -7.369686399    14.854154798    -2.612608539
 C       -6.718801957    15.879888033    -1.933527324
 C       -5.525090682    16.421585413    -2.429551674
 C       -5.000009730    15.909779216    -3.619429600
 C       -5.649477459    14.880332525    -4.301346491
 C       -4.880446116    17.495445767    -1.681626547
 C       -3.736068446    18.099552515    -2.043631768
 C       -3.092164465    19.173709635    -1.294580008
 C       -3.619957893    19.683623306    -0.104441743
 C       -2.971842216    20.710808025     0.579442511
 C       -1.774720639    21.247764113     0.090568916
 C       -1.244054176    20.737984146    -1.099721021
 C       -1.896811285    19.714849986    -1.784002676
Si       -0.936566564    22.607953566     1.015958536
 C       -0.787385344    22.120796379     2.814474302
 C        0.771065853    22.924351550     0.324888238
 C       -1.970799626    24.155992253     0.855875889
 C       -6.588071623    12.056067191    -5.826974333
 C       -9.164447212    13.699455585    -5.624636966
 C       -2.983928405    13.665787571     1.074395453
 C       -4.111421066    13.019578276    -1.688183789
 C       -0.610732060    -0.881040375    -1.531371566
 C       -0.621646200    -0.872710250     1.531304165
 H        1.268362596     2.727518535     0.228512630
 H        0.340966941     4.971445153     0.222464451
 H       -3.629997628     3.374550325    -0.231177513
 H       -2.745559828     1.109065796    -0.226899159
 H       -3.392344241     5.690659584    -0.121226405
 H       -0.522465048     6.806226232     0.206552433
 H       -0.292764005     9.127342264     0.316000232
 H       -1.189042145    11.391265041     0.312130562
 H       -5.197883327     9.752015273    -0.128369276
 H       -4.256286775     7.511654357    -0.138917793
 H       -5.613796596    11.931314413     1.897797690
 H       -6.896961498    12.985413326    -0.747822746
 H       -9.203514175    13.163063897    -0.794874460
 H      -11.431134859    12.976381960     0.268345804
 H       -9.577674971    11.488454615     3.863644947
 H       -7.362538331    11.730403927     2.829897756
 H      -13.141935158    12.414418433     4.383831586
 H      -11.558718830    13.225347263     4.405712186
 H      -11.662589214    11.465008760     4.707273389
 H      -10.677376944     6.616782859     2.585594882
 H       -9.628380807     8.062861474     2.509252483
 H       -9.503936915     6.774808043     1.264792237
 H      -12.766206291     9.174501683    -0.740223284
 H      -12.035432348    10.740592871    -2.484363609
 H       -7.937006480    10.173851080    -1.285001365
 H       -8.654937477     8.689746995     0.509743962
 H      -10.397115913    11.887249686    -3.650108276
 H       -7.437786532    11.403383194    -2.776911179
 H       -8.304006201    14.476035920    -2.183441852
 H       -7.142808817    16.262186847    -1.005733610
 H       -4.075654283    16.314643438    -4.027075587
 H       -5.191436717    14.520806262    -5.226449564
 H       -5.403648964    17.794188571    -0.767996234
 H       -3.212415645    17.801097917    -2.956579914
 H       -4.547947558    19.280872039     0.298241069
 H       -3.434698599    21.070225764     1.503025807
 H       -0.312783523    21.117983197    -1.528578315
 H       -1.468814913    19.333404172    -2.709288622
 H      -13.765672003    11.048196375     2.384750314
 H      -12.584396229    10.902683104     1.054810645
 H      -11.086786900     9.679839614     2.980606714
 H      -12.652249371     9.410976558     3.740807274
 H      -12.764560571     7.516554612     2.416626019
 H      -13.244997508     8.615662383     1.115512997
 H        2.266708788    -1.030528920    -0.021408993
 H        2.276026748     0.491320703     0.901603821
 H        2.272806302     0.527941230    -0.882494498
 H       -0.252544763    22.892105411     3.396368063
 H       -0.229923789    21.173024623     2.926480651
 H       -1.777658648    21.978767641     3.281787227
 H        1.396700302    22.014649430     0.365280811
 H        0.730098576    23.258277273    -0.726949437
 H        1.293617144    23.710181431     0.899468914
 H       -2.990571123    24.003689595     1.252164558
 H       -1.520376539    25.000282030     1.406817127
 H       -2.071298275    24.462586893    -0.201170073
 H       -5.691448014    11.683456698    -5.298566274
 H       -7.094701655    11.179487195    -6.271257938
 H       -6.245956878    12.694945545    -6.659715368
 H       -9.857217134    14.248348824    -4.961342680
 H       -8.817270068    14.411122958    -6.395480808
 H       -9.744523160    12.912576844    -6.138942651
 H       -2.845979494    13.327824013     2.116466889
 H       -1.982301601    13.811072014     0.632720178
 H       -3.473490893    14.657665065     1.108395931
 H       -4.652332612    12.287973579    -2.315260614
 H       -4.643965824    13.987755034    -1.773882992
 H       -3.109496715    13.156192879    -2.131646498
 H       -0.268093728    -0.369574343    -2.449350446
 H       -0.240659623    -1.920596140    -1.571425486
 H       -1.713721060    -0.918237765    -1.567054258
 H       -0.276306552    -0.363816415     2.449569280
 H       -1.725352976    -0.896308982     1.563466656
 H       -0.263504599    -1.916265589     1.573561032

