139   

Si        0.000000000     0.000000000     0.000000000
 C        1.869273295     0.000000000     0.000000000
 C       -0.628734167     1.735897209     0.000000000
 C        0.020414800     2.719159856    -0.755408897
 C       -0.446633040     4.032691750    -0.761952064
 C       -1.576554675     4.393121556    -0.022039727
 C       -2.228082318     3.406571025     0.729231440
 C       -1.761819876     2.094014338     0.740230008
 C       -2.100805115     5.754839066     0.000844511
 C       -1.568953176     6.790251366    -0.670681421
 C       -2.092542796     8.152135589    -0.648331173
 C       -1.436718432     9.138221008    -1.398414822
 C       -1.899200308    10.450873057    -1.408102620
 C       -3.028350265    10.812334085    -0.659717507
 C       -3.682633202     9.830942338     0.089679964
 C       -3.219953085     8.514667226     0.092757047
Si       -3.615498179    12.561627613    -0.694499945
 C       -4.171192069    12.987574810    -2.387267013
 C       -4.147180087    12.144065906    -3.427903714
 C       -4.590782825    12.483330714    -4.780246097
 C       -4.512196338    11.503914820    -5.781625593
 C       -4.918044656    11.770283887    -7.078295124
 C       -5.472952794    13.025790828    -7.410384091
 C       -5.554055351    14.008382539    -6.405697328
 C       -5.096589106    13.739916909    -5.121560724
 N       -5.879655515    13.278420156    -8.732900571
 C       -6.457839064    12.145576180    -9.477558360
 C       -6.583368238    14.546813933    -8.985036940
 C       -7.685348115    11.515567739    -8.788569396
 C       -8.597625948    10.792395944    -9.795262906
 N       -9.753649850    11.591988532   -10.260839797
 C       -9.391060393    12.816097667   -10.885155678
 C       -8.638392180    12.739751267   -12.074386816
 C       -8.254238588    13.897424648   -12.730154516
 C       -8.629016321    15.160643516   -12.245802394
 C       -9.395370832    15.228905443   -11.080519021
 C       -9.783403943    14.074657386   -10.407828782
 C      -10.817684484    11.684705854    -9.245493257
 C       -8.195696928    16.353438332   -12.978155795
 C       -8.492645001    17.606496467   -12.610767914
Si       -7.972094439    19.125022899   -13.496111527
 C       -9.485110537    20.041836363   -14.017674060
 C      -10.728646666    19.403100904   -14.053865379
 C      -11.870701321    20.099233769   -14.448708021
 C      -11.793875433    21.443574685   -14.822794316
 C      -10.545326332    22.079565672   -14.790200761
 C       -9.403371091    21.388359041   -14.393607075
 C      -12.961967105    22.211176946   -15.242650777
 C      -14.211282262    21.721794566   -15.317268984
 C      -15.380448738    22.487716238   -15.736829721
 C      -15.306654026    23.833629117   -16.108754290
 C      -16.449401458    24.527270244   -16.503125877
 C      -17.695195384    23.888702420   -16.534137198
 C      -17.771535896    22.542041532   -16.162330704
 C      -16.627357213    21.851056683   -15.768734537
Si      -19.191031785    24.833887007   -17.061008347
 C      -18.901917073    25.506627995   -18.780601737
 C      -20.701454387    23.733155580   -17.075779128
 C      -19.462238616    26.239665466   -15.859693646
 C       -6.968147903    20.163971728   -12.311839536
 C       -6.961006289    18.725851639   -15.013257603
 C       -5.047583879    12.809426182     0.480004656
 C       -2.206274308    13.688297549    -0.208476949
 C       -0.633132727    -0.851240497    -1.538496579
 C       -0.605433731    -0.910707595     1.516277528
 H        0.907518084     2.498366241    -1.355642909
 H        0.079320293     4.779719934    -1.353900882
 H       -3.109959005     3.665265315     1.312585603
 H       -2.310895636     1.368691213     1.346863408
 H       -2.990827050     5.891878282     0.622158917
 H       -0.678955145     6.652759397    -1.291898270
 H       -0.556237407     8.876422759    -1.982270602
 H       -1.348809711    11.176655242    -2.015315242
 H       -4.568754664    10.054231023     0.690150719
 H       -3.748723860     7.768624401     0.683016250
 H       -4.539286196    14.018807969    -2.494862148
 H       -3.787146616    11.107769141    -3.341179578
 H       -4.112483962    10.517932320    -5.539946498
 H       -4.806534897    11.003911574    -7.839808018
 H       -5.966175552    14.989151544    -6.619987006
 H       -5.154421088    14.524591505    -4.366080085
 H       -6.863759398    14.619023698   -10.052484322
 H       -5.898601831    15.388648704    -8.777631385
 H       -7.501993522    14.669232393    -8.389494861
 H      -11.151631618    10.662941796    -8.991589019
 H      -11.689679430    12.209095843    -9.674164064
 H      -10.518046279    12.192470042    -8.315432202
 H       -8.371335520    11.765471284   -12.478798680
 H       -7.663606775    13.823271913   -13.643782002
 H       -9.704471208    16.198613477   -10.686829032
 H      -10.376504680    14.164377864    -9.502311498
 H       -7.598945785    16.120881119   -13.869916539
 H       -9.093838884    17.808407047   -11.708974072
 H      -10.849124244    18.350273120   -13.777392566
 H      -12.828062996    19.581082584   -14.465013314
 H      -10.464293182    23.126039289   -15.078177419
 H       -8.457393186    21.936617558   -14.386941916
 H      -12.754753473    23.252750963   -15.505081716
 H      -14.417797129    20.679599360   -15.055383148
 H      -14.349713862    24.352399370   -16.092940306
 H      -16.328540465    25.577689841   -16.782975890
 H      -18.716569627    21.992191834   -16.167358244
 H      -16.707740747    20.803553498   -15.483584119
 H       -6.723088630    12.503531415   -10.499638007
 H       -5.661965336    11.381562116    -9.627437729
 H       -7.351699911    10.815234687    -7.999904906
 H       -8.255019198    12.297162519    -8.249958969
 H       -8.021305391    10.473155976   -10.692350856
 H       -8.994839352     9.854042413    -9.346422879
 H        2.268667376    -1.028170909     0.056963893
 H        2.268779153     0.560181425     0.865035399
 H        2.279219776     0.463983752    -0.914041043
 H      -19.781721786    26.063876103   -19.147610042
 H      -18.700118459    24.691679534   -19.499489258
 H      -18.036858907    26.192453350   -18.808721446
 H      -20.573746456    22.879638064   -17.765297592
 H      -20.916587472    23.325739742   -16.071921870
 H      -21.597156901    24.290667393   -17.403708376
 H      -18.588752766    26.914429987   -15.821225213
 H      -20.341034412    26.845944095   -16.141307205
 H      -19.631885219    25.862355433   -14.834816489
 H       -7.567645067    20.468280951   -11.434785969
 H       -6.091031584    19.605869120   -11.936618769
 H       -6.595231739    21.084197521   -12.794646220
 H       -7.534573469    18.107137794   -15.727696241
 H       -6.658099159    19.644806374   -15.546913951
 H       -6.040710171    18.173636053   -14.752221275
 H       -5.913962819    12.184602056     0.196774946
 H       -4.768483335    12.550629988     1.516668934
 H       -5.387669567    13.860415321     0.480718851
 H       -1.359226480    13.603138797    -0.912814178
 H       -2.521262672    14.746471808    -0.194972833
 H       -1.826153010    13.439118660     0.798625736
 H       -0.289491860    -0.336921909    -2.453843205
 H       -0.285342936    -1.897763557    -1.591983750
 H       -1.737735455    -0.864276909    -1.564213668
 H       -0.309731429    -0.386890899     2.443254700
 H       -1.705133033    -1.008897748     1.522776007
 H       -0.183748910    -1.930652701     1.563513743

