139   

Si        0.000000000     0.000000000     0.000000000
 C        1.868612341     0.000000000     0.000000000
 C       -0.654707159     1.724452088     0.000000000
 C        0.147725492     2.805147520    -0.378676345
 C       -0.362023663     4.103177719    -0.373387517
 C       -1.688345340     4.347494398    -0.007978667
 C       -2.492111559     3.263106869     0.366719056
 C       -1.981967368     1.967903445     0.375545744
 C       -2.264687113     5.687167401     0.012359670
 C       -1.599514643     6.808973331    -0.310561200
 C       -2.179037716     8.147390588    -0.289139682
 C       -1.375545465     9.236116395    -0.649315308
 C       -1.887488874    10.531924917    -0.643127227
 C       -3.219042428    10.765013351    -0.285303356
 C       -4.027141323     9.677887901     0.068564885
 C       -3.511381340     8.383717387     0.063928927
Si       -3.940328672    12.462990560    -0.262673957
 C       -5.409098486    12.344949513    -1.349619594
 C       -6.676020455    12.583238528    -0.989077749
 C       -7.813171854    12.471978347    -1.906453775
 C       -9.102964007    12.744003203    -1.427059722
 C      -10.206683594    12.650831689    -2.260909731
 C      -10.042348577    12.258520862    -3.600952780
 C       -8.761692666    11.957712477    -4.078447672
 C       -7.664303810    12.048080425    -3.229018986
 N      -11.223911556    12.184352196    -4.401424168
 C      -11.770888340    13.513350599    -4.750379985
 C      -11.124329803    11.286271809    -5.566226985
 C      -10.840038634    14.402620829    -5.597775040
 C      -10.053933350    15.394606734    -4.719513585
 N       -8.899369530    16.055160501    -5.363575453
 C       -7.697119369    15.263564874    -5.291376349
 C       -6.739382040    15.703974871    -4.366851142
 C       -5.547485900    15.007783783    -4.223560364
 C       -5.304233334    13.841191721    -4.963401234
 C       -6.264523252    13.413787197    -5.885155802
 C       -7.443617032    14.130034344    -6.069424385
 C       -9.173329418    16.538087890    -6.729546563
 C       -4.027702927    13.143992151    -4.773582317
 C       -3.681909738    12.024290899    -5.420933358
Si       -2.102250064    11.112482291    -5.222860356
 C       -2.518916071     9.412584232    -4.644505650
 C       -3.693513839     9.195801892    -3.915283952
 C       -4.023079250     7.916535241    -3.470687883
 C       -3.176899231     6.833309282    -3.723861524
 C       -1.995458372     7.056255591    -4.442840060
 C       -1.667826474     8.331315910    -4.897752760
 C       -3.481175204     5.477594509    -3.277867873
 C       -4.578430641     5.133964868    -2.582684884
 C       -4.886203022     3.780126395    -2.135072950
 C       -4.049804369     2.689799219    -2.393320891
 C       -4.384665040     1.412888683    -1.945705584
 C       -5.562667256     1.199275315    -1.219639643
 C       -6.398314305     2.289912077    -0.955039449
 C       -6.062681543     3.564329398    -1.406592522
Si       -5.985006772    -0.500231646    -0.637433624
 C       -4.626115928    -1.099646386     0.498837709
 C       -7.609035449    -0.504477235     0.287285976
 C       -6.111164523    -1.626789403    -2.123290237
 C       -1.281770115    11.044528688    -6.901009088
 C       -0.950912899    11.916321737    -3.996763799
 C       -4.386875593    12.918913811     1.491026552
 C       -2.771845573    13.742540214    -0.958175609
 C       -0.637342041    -0.858575913    -1.534554102
 C       -0.610715925    -0.895742099     1.523703833
 H        1.189750088     2.675719385    -0.681071264
 H        0.284306290     4.928768787    -0.665280343
 H       -3.532195269     3.429752837     0.646368321
 H       -2.658247048     1.163643793     0.679916071
 H       -3.316138147     5.727633068     0.313107664
 H       -0.552043905     6.768066863    -0.621008322
 H       -0.340850170     9.070671842    -0.942249024
 H       -1.210286090    11.343331165    -0.921406797
 H       -5.078259426     9.801372927     0.347888353
 H       -4.157793424     7.551814164     0.338644442
 H       -5.158220172    12.052272520    -2.385642018
 H       -6.962272572    12.885266263     0.025433376
 H       -9.241776585    13.043205542    -0.388665468
 H      -11.205149311    12.860965474    -1.882925215
 H       -8.610720090    11.658759348    -5.111945343
 H       -6.672586685    11.806394042    -3.619505279
 H      -12.141165310    11.113491634    -5.959749434
 H      -10.731414737    10.307592315    -5.238704056
 H      -10.494023594    11.660899110    -6.386746879
 H      -10.051201738    17.204738550    -6.701909630
 H       -9.352785469    15.748384730    -7.473301912
 H       -8.309779339    17.138999131    -7.066660618
 H       -6.944491277    16.593497940    -3.771459527
 H       -4.803898142    15.362704890    -3.510598445
 H       -6.089607952    12.518264493    -6.481577156
 H       -8.167044828    13.800421795    -6.809282165
 H       -3.371230402    13.636208052    -4.044177882
 H       -4.363747050    11.555308173    -6.150316007
 H       -4.387599389    10.007754778    -3.671798668
 H       -4.944761025     7.772216712    -2.908676868
 H       -1.322169178     6.225686739    -4.645762404
 H       -0.734781165     8.445471638    -5.454744277
 H       -2.731486237     4.726889612    -3.544964953
 H       -5.324104298     5.887057452    -2.311051968
 H       -3.121729413     2.832028837    -2.945499953
 H       -3.689771687     0.601029713    -2.179450399
 H       -7.329678879     2.183396593    -0.393275934
 H       -6.726528508     4.399571168    -1.191496141
 H      -12.730239259    13.345251688    -5.289375151
 H      -12.042336112    14.026039134    -3.800007799
 H      -10.137409902    13.771944124    -6.173077714
 H      -11.431923308    14.954682872    -6.349125485
 H      -10.729477018    16.211982447    -4.377263540
 H       -9.688932293    14.881538835    -3.798154031
 H        2.267982294    -1.027388798     0.069209939
 H        2.269402541     0.569064699     0.858254124
 H        2.278289931     0.450929328    -0.920677935
 H       -4.851675708    -2.104924245     0.895820553
 H       -4.496301522    -0.422313851     1.362136387
 H       -3.658502523    -1.161553551    -0.030168980
 H       -7.571623902     0.146901862     1.178411414
 H       -8.439439732    -0.153627377    -0.350930757
 H       -7.867927854    -1.521103165     0.633147920
 H       -5.168281258    -1.650168124    -2.697741726
 H       -6.346953487    -2.663089017    -1.824903549
 H       -6.907062418    -1.290149152    -2.812274928
 H       -1.906124715    10.502613669    -7.633856335
 H       -1.106008350    12.058894101    -7.301908230
 H       -0.305045144    10.532533055    -6.854414579
 H       -1.364834407    11.873886830    -2.972397348
 H        0.025990133    11.400450316    -3.973706814
 H       -0.762902408    12.974656871    -4.247666609
 H       -5.081468168    12.184479699     1.936974313
 H       -3.490360472    12.953152724     2.136119854
 H       -4.870173694    13.910498332     1.541161235
 H       -2.470998623    13.506818584    -1.994546602
 H       -3.244982472    14.741400498    -0.970249713
 H       -1.853288616    13.820043604    -0.350359182
 H       -0.299271505    -0.342409071    -2.450992476
 H       -0.281473451    -1.901960829    -1.588189480
 H       -1.741778949    -0.879375273    -1.555699842
 H       -0.297025741    -0.371843520     2.444869164
 H       -1.712756955    -0.967992945     1.543166532
 H       -0.209072817    -1.922825219     1.572770172

