139   

Si        0.000000000     0.000000000     0.000000000
 C        1.868878162     0.000000000     0.000000000
 C       -0.663138790     1.722549497     0.000000000
 C        0.180125231     2.836603718     0.036205712
 C       -0.348841572     4.127727610     0.035297368
 C       -1.729998707     4.333355739    -0.002163189
 C       -2.574406636     3.214955400    -0.037948892
 C       -2.049747027     1.925833514    -0.036259111
 C       -2.330150119     5.662982727    -0.004692928
 C       -1.642285617     6.817154527     0.027892403
 C       -2.256162144     8.141006709     0.024903741
 C       -1.433059109     9.273377033     0.061138613
 C       -1.981241996    10.555215403     0.059574441
 C       -3.367958921    10.732753737     0.033790596
 C       -4.192658651     9.600675205    -0.004892817
 C       -3.641977816     8.321222069    -0.017461488
Si       -4.152168867    12.404583559     0.030399885
 C       -5.361899754    12.501483845    -1.344005587
 C       -5.605349839    11.491363418    -2.188558308
 C       -6.560041605    11.529819235    -3.294177792
 C       -6.694018155    10.379102906    -4.087073751
 C       -7.578309653    10.345723640    -5.149224979
 C       -8.400273150    11.460751798    -5.424603218
 C       -8.264665780    12.613852826    -4.634279022
 C       -7.334405331    12.648518175    -3.600264402
 N       -9.286573509    11.380907521    -6.517983488
 C      -10.046702209    10.117371688    -6.647113210
 C      -10.086286311    12.576806064    -6.822287365
 C      -10.505780101     9.439439374    -5.343099240
 C      -11.743908306    10.064281278    -4.673328843
 N      -11.492795006    10.791363547    -3.420439423
 C      -10.749385365    10.213972849    -2.394597068
 C      -10.609431051     8.810284451    -2.308348678
 C       -9.868148835     8.241430455    -1.284873815
 C       -9.277244749     9.025476261    -0.283881138
 C       -9.433008126    10.413506534    -0.359870999
 C      -10.148477608    11.005097114    -1.390341042
 C      -11.526409071    12.253804620    -3.515796579
 C       -8.505319886     8.368387212     0.772218709
 C       -7.895773660     9.008949337     1.779623986
Si       -6.922908438     8.210949078     3.115146663
 C       -7.737685306     8.635994286     4.719199408
 C       -9.049100336     9.121407121     4.744084793
 C       -9.663563292     9.441977335     5.954073855
 C       -8.984718606     9.278739619     7.164713024
 C       -7.672649459     8.787284520     7.137696886
 C       -7.056070011     8.467557687     5.930731600
 C       -9.587520873     9.600903779     8.454177843
 C      -10.833255679    10.077894180     8.617395493
 C      -11.437513062    10.400526876     9.905876602
 C      -10.761092398    10.239672210    11.117763859
 C      -11.378022944    10.561056200    12.327059060
 C      -12.687027196    11.050638822    12.349875001
 C      -13.368490711    11.212479763    11.135773151
 C      -12.750515391    10.890717004     9.930666358
Si      -13.532531181    11.485403691    13.931950379
 C      -12.393208971    11.220998285    15.390027157
 C      -14.042454332    13.282527038    13.866341240
 C      -15.040996613    10.398229577    14.121489059
 C       -6.866484270     6.356009746     2.913507830
 C       -5.186785008     8.893449082     3.147263546
 C       -5.066018321    12.639628417     1.643060311
 C       -2.875567668    13.748749862    -0.188827604
 C       -0.613758109    -0.878409085    -1.531539163
 C       -0.616693467    -0.875878095     1.531609434
 H        1.268795668     2.738921818     0.065908904
 H        0.329558439     4.978665102     0.063926000
 H       -3.653657310     3.353378372    -0.066948652
 H       -2.757540073     1.092545718    -0.064357265
 H       -3.424267947     5.668529488    -0.035262631
 H       -0.549375001     6.816265196     0.059146464
 H       -0.351754633     9.155273981     0.088791861
 H       -1.289401145    11.401169707     0.081034238
 H       -5.288221054     9.675995618    -0.019559069
 H       -4.305936643     7.458712209    -0.059718983
 H       -5.890257895    13.461589288    -1.426882684
 H       -5.077686416    10.526168691    -2.129270886
 H       -6.086532720     9.498575011    -3.869091560
 H       -7.631203503     9.463345420    -5.781833668
 H       -8.862170235    13.497457657    -4.831450955
 H       -7.230279200    13.560195749    -3.010988120
 H      -10.588473639    12.438170495    -7.795688180
 H       -9.413985309    13.446719502    -6.938710737
 H      -10.848593447    12.813388178    -6.065171658
 H      -12.197052307    12.575663648    -4.328412385
 H      -10.526625650    12.692467582    -3.684470835
 H      -11.940873854    12.671660090    -2.577749272
 H      -11.084522216     8.167013544    -3.040804402
 H       -9.756750038     7.156945203    -1.254714792
 H       -8.972644554    11.053044023     0.396092655
 H      -10.220051627    12.086817356    -1.420838347
 H       -8.469774418     7.276461785     0.660434675
 H       -7.944215254    10.106192049     1.864890501
 H       -9.632027798     9.265557447     3.827949944
 H      -10.684083233     9.820667476     5.946505353
 H       -7.126948914     8.652132364     8.069495709
 H       -6.031789864     8.086860603     5.972251628
 H       -8.940419560     9.424495714     9.318430779
 H      -11.479875342    10.253428546     7.752474873
 H       -9.740949638     9.859893089    11.127798701
 H      -10.797845898    10.414009698    13.242100236
 H      -14.393721639    11.590672155    11.092093018
 H      -13.295635417    11.022454696     8.997744266
 H      -10.920183779    10.282465073    -7.313924502
 H       -9.374075755     9.411955254    -7.197125762
 H      -10.715156516     8.374196817    -5.566227769
 H       -9.668956573     9.405967355    -4.611482078
 H      -12.264177154    10.740532027    -5.386545707
 H      -12.479140382     9.256144408    -4.432611624
 H        2.266330417    -1.030860748    -0.004671706
 H        2.274975796     0.505654956     0.894189393
 H        2.273804638     0.513531616    -0.890306159
 H      -12.893127197    11.486719995    16.338679207
 H      -11.483691223    11.842889119    15.311073757
 H      -12.074430397    10.166441013    15.469614111
 H      -13.164804972    13.942148287    13.739147233
 H      -14.727215114    13.479305047    13.022654289
 H      -14.558173153    13.588681949    14.793333297
 H      -14.761470926     9.329438676    14.154926217
 H      -15.589199996    10.628793026    15.051712657
 H      -15.742861818    10.528411729    13.278854453
 H       -7.879769601     5.916908758     2.942245734
 H       -6.400362511     6.067629149     1.954717919
 H       -6.281373384     5.883291353     3.722923076
 H       -5.180289744     9.998458113     3.143376595
 H       -4.640975028     8.563289176     4.048741089
 H       -4.596804309     8.558338558     2.274184207
 H       -5.872165254    11.890718425     1.759043383
 H       -4.387056981    12.534792011     2.508041012
 H       -5.530635634    13.639197072     1.702648873
 H       -2.317414657    13.620614887    -1.134377312
 H       -3.344577013    14.748331247    -0.218207680
 H       -2.142672956    13.752102790     0.636939559
 H       -0.271805808    -0.366721195    -2.449590317
 H       -0.245962053    -1.918699657    -1.573284531
 H       -1.716966149    -0.912876730    -1.565338459
 H       -0.271239246    -0.366435347     2.449641059
 H       -1.720153876    -0.903930264     1.566128172
 H       -0.254575507    -1.918180722     1.572685809

