139   

Si        0.000000000     0.000000000     0.000000000
 C        1.869340052     0.000000000     0.000000000
 C       -0.649747751     1.728072775     0.000000000
 C        0.141673747     2.799051500    -0.427008063
 C       -0.361589360     4.099885672    -0.421946213
 C       -1.668728769     4.358589672    -0.001088713
 C       -2.462451879     3.283393022     0.420487456
 C       -1.961324366     1.984386068     0.420789277
 C       -2.238544830     5.701844985     0.021578884
 C       -1.586743616     6.816590534    -0.350809422
 C       -2.159112349     8.158896888    -0.327129918
 C       -1.366664824     9.237173979    -0.743673843
 C       -1.870213645    10.535512407    -0.738186476
 C       -3.184221899    10.784122355    -0.322749658
 C       -3.977769141     9.710012318     0.092530682
 C       -3.467936546     8.412080291     0.092675972
Si       -3.855463368    12.503016181    -0.313924730
 C       -5.684868615    12.405725716    -0.300209427
 C       -6.484487466    12.906366010     0.650642736
 C       -7.945339477    12.809479980     0.628203148
 C       -8.680136841    13.372734155     1.681491935
 C      -10.063584330    13.307531849     1.706426331
 C      -10.771222643    12.707775889     0.642507310
 C      -10.034509441    12.141114153    -0.414023846
 C       -8.645823094    12.175853992    -0.401613120
 N      -12.178197345    12.650866289     0.685737061
 C      -12.867918049    13.814617504     1.273500177
 C      -12.859896754    12.139618833    -0.516018877
 C      -12.626892734    15.111792632     0.485158792
 C      -13.377215391    16.288815703     1.128467974
 N      -13.311291432    17.522451449     0.322308534
 C      -13.877725780    17.463309422    -0.966807031
 C      -15.021273819    16.667798683    -1.194871922
 C      -15.589490151    16.599449090    -2.456359918
 C      -15.078437715    17.350879568    -3.524499106
 C      -13.965246231    18.162028290    -3.289606886
 C      -13.373271470    18.229093834    -2.034493486
 C      -12.012616396    18.207224696     0.444427541
 C      -15.718508776    17.239560819    -4.835923682
 C      -15.322638086    17.904965869    -5.929368644
Si      -16.122483646    17.766742322    -7.570968622
 C      -17.534203619    16.582657648    -7.466997829
 C      -17.397649237    15.256622239    -7.889537624
 C      -18.471849521    14.371033581    -7.806014977
 C      -19.701049532    14.786163391    -7.286723837
 C      -19.833516885    16.113152762    -6.856105149
 C      -18.764364730    17.000857760    -6.942905086
 C      -20.852008741    13.895658926    -7.179920779
 C      -20.858945722    12.605335732    -7.555309570
 C      -22.010710837    11.715629342    -7.448015705
 C      -23.240984346    12.133732150    -6.932940540
 C      -24.315835742    11.249591177    -6.848569938
 C      -24.186326596     9.926693922    -7.285169095
 C      -22.954857219     9.505554092    -7.802180597
 C      -21.880817559    10.388976783    -7.879206325
Si      -25.609781413     8.755871849    -7.173414009
 C      -27.220737709     9.688694077    -7.345652764
 C      -25.500004591     7.482184113    -8.537580027
 C      -25.544011741     7.907905996    -5.509638745
 C      -16.746178472    19.449975607    -8.090710679
 C      -14.854242281    17.169070639    -8.806712767
 C       -3.197966287    13.390934639     1.191208710
 C       -3.336027981    13.403496294    -1.866578847
 C       -0.629387860    -0.863557484    -1.532891567
 C       -0.602848207    -0.894621897     1.527214032
 H        1.170509594     2.659647392    -0.769958528
 H        0.277398175     4.916852445    -0.752529582
 H       -3.483531620     3.462856950     0.752605871
 H       -2.627030955     1.186904958     0.762420384
 H       -3.272864049     5.753299208     0.374928598
 H       -0.552737949     6.765813307    -0.704131278
 H       -0.345099172     9.060965723    -1.074812360
 H       -1.205520423    11.336947129    -1.071572556
 H       -5.011333262     9.847331941     0.428394172
 H       -4.104140155     7.592667965     0.422895697
 H       -6.102218778    11.883305062    -1.176564759
 H       -6.099656746    13.433944313     1.533243456
 H       -8.156050799    13.861934465     2.503197443
 H      -10.600594199    13.723678092     2.554077399
 H      -10.537004793    11.665340443    -1.250462172
 H       -8.099789387    11.713827284    -1.226145526
 H      -13.951373928    12.137178530    -0.354893159
 H      -12.559747849    11.089281931    -0.682813652
 H      -12.647433326    12.722803119    -1.427357984
 H      -11.668961575    18.177667356     1.492059799
 H      -12.139555417    19.272888167     0.180929267
 H      -11.223589775    17.771873257    -0.190678507
 H      -15.463189252    16.098073057    -0.382506817
 H      -16.459172301    15.959901062    -2.615233988
 H      -13.547176201    18.757914169    -4.102261024
 H      -12.509661799    18.872294659    -1.898656300
 H      -16.572180530    16.545805887    -4.841497727
 H      -14.465442002    18.594501157    -5.901693716
 H      -16.459863600    14.872041468    -8.300532880
 H      -18.341899118    13.346181157    -8.148776007
 H      -20.782514539    16.456764202    -6.448623546
 H      -18.927603834    18.023836776    -6.590637707
 H      -21.750061308    14.357428369    -6.758796774
 H      -19.961713563    12.142835952    -7.977192126
 H      -23.369852328    13.159238689    -6.591146419
 H      -25.252217981    11.635271353    -6.435624142
 H      -22.794633042     8.484528418    -8.159417627
 H      -20.931325652    10.042047428    -8.282881415
 H      -13.956407421    13.585097383     1.325550857
 H      -12.534724608    13.928807126     2.329668456
 H      -11.542769130    15.329616254     0.431075402
 H      -12.952081901    14.983828096    -0.566657910
 H      -14.449186052    16.032912710     1.290357201
 H      -12.966644260    16.507226475     2.139847566
 H        2.267927693    -1.027357266     0.076775087
 H        2.270305291     0.575449706     0.853936190
 H        2.278513287     0.443485537    -0.924710142
 H      -28.083031017     8.998455140    -7.353344170
 H      -27.249457262    10.265844430    -8.287725779
 H      -27.374373849    10.398772894    -6.514363174
 H      -25.449735868     7.963811611    -9.530974039
 H      -24.606339683     6.842861348    -8.430901285
 H      -26.382553615     6.817960844    -8.535234847
 H      -25.604718396     8.638836792    -4.683300745
 H      -26.378579189     7.195357201    -5.387586481
 H      -24.602118783     7.344704987    -5.382013716
 H      -17.430882903    19.880344845    -7.338155280
 H      -15.914168171    20.163663661    -8.225212767
 H      -17.294908928    19.392832333    -9.047999242
 H      -14.388332909    16.220791399    -8.483589580
 H      -15.310317439    16.999526739    -9.798427776
 H      -14.041930012    17.906314107    -8.936147930
 H       -3.495423021    12.875536861     2.122800704
 H       -2.094253110    13.436470922     1.180242834
 H       -3.574218386    14.427820225     1.244494178
 H       -3.646095913    12.852817506    -2.773131392
 H       -3.794061693    14.407926310    -1.916474196
 H       -2.241066252    13.534251743    -1.914363789
 H       -0.284187178    -0.354173528    -2.450726381
 H       -0.278539623    -1.909400894    -1.579108658
 H       -1.733669368    -0.879443215    -1.561281897
 H       -0.298984539    -0.362203241     2.446864280
 H       -1.703177746    -0.982571216     1.542897989
 H       -0.188342373    -1.916781052     1.582020255

