139   

Si        0.000000000     0.000000000     0.000000000
 C        1.869478905     0.000000000     0.000000000
 C       -0.637834643     1.732853904     0.000000000
 C        0.145804510     2.787499820    -0.479562356
 C       -0.342911127     4.093630719    -0.476308645
 C       -1.627028624     4.374998826    -0.001995217
 C       -2.412833993     3.316663993     0.473002699
 C       -1.926529865     2.011773223     0.473291015
 C       -2.179105813     5.725743109     0.020119287
 C       -1.529511844     6.823384957    -0.403134510
 C       -2.078665936     8.175120969    -0.382341009
 C       -3.361640339     8.461124186     0.090827928
 C       -3.845989243     9.769652643     0.091972805
 C       -3.057712690    10.819450932    -0.386806005
 C       -1.770121273    10.535554206    -0.863449167
 C       -1.287951153     9.230090177    -0.858703057
Si       -3.662527602    12.561720374    -0.401619514
 C       -2.641960571    13.582091755     0.724712667
 C       -1.613239297    13.113957897     1.443830781
 C       -0.795677332    13.925760786     2.344561743
 C        0.253713088    13.308034900     3.039143313
 C        1.060956865    14.026466085     3.905389441
 C        0.812204945    15.395758226     4.143573583
 C       -0.238979582    16.016406162     3.443118005
 C       -1.008068543    15.292846321     2.541491122
 N        1.642728426    16.110147553     5.026938336
 C        2.181310157    15.367537964     6.183772650
 C        1.237574714    17.488791910     5.345546946
 C        1.143343449    14.585965743     7.010193366
 C        0.413217246    15.457979812     8.049920135
 N       -1.035986803    15.180745301     8.169134745
 C       -1.778836416    15.639518470     7.037397496
 C       -1.944581080    17.031616566     6.922628617
 C       -2.652146372    17.558303608     5.854227838
 C       -3.232586986    16.718925685     4.890976950
 C       -3.081797968    15.336503410     5.023735884
 C       -2.369650970    14.794794004     6.090201301
 C       -1.318778037    13.793981091     8.579033580
 C       -3.967185892    17.340358686     3.786850991
 C       -4.572405659    16.671421525     2.796561532
Si       -5.481265343    17.496554680     1.434358661
 C       -5.403566308    19.323732911     1.680376423
 C       -6.127487456    19.915025212     2.724645735
 C       -6.080754589    21.291705175     2.925214787
 C       -5.303937100    22.111437564     2.094996609
 C       -4.578781469    21.518189604     1.058434146
 C       -4.626114836    20.139356920     0.853159133
 C       -5.287114878    23.549011498     2.344981918
 C       -4.588939022    24.442328748     1.623501061
 C       -4.571423524    25.880094868     1.872638754
 C       -5.296193733    26.474964214     2.909015956
 C       -5.250196909    27.854038678     3.110759138
 C       -4.469689727    28.669244249     2.284097254
 C       -3.742031355    28.075265278     1.245157611
 C       -3.796096996    26.698747417     1.040892359
Si       -4.406626208    30.495703157     2.548594493
 C       -4.703874098    30.893574062     4.350913320
 C       -2.729053107    31.155058726     2.052749878
 C       -5.734111669    31.287302019     1.498942234
 C       -4.692799236    17.024292620    -0.192366654
 C       -7.260203917    16.928599740     1.448989004
 C       -3.531908063    13.246803584    -2.135347305
 C       -5.438618649    12.659695615     0.174545373
 C       -0.631693356    -0.858982895    -1.534184698
 C       -0.605400135    -0.895745413     1.525074776
 H        1.157134400     2.630613977    -0.864764174
 H        0.289475686     4.896952670    -0.850378003
 H       -3.416103610     3.513464963     0.846706421
 H       -2.585263477     1.228036491     0.857460745
 H       -3.195754097     5.798246433     0.417559667
 H       -0.513063603     6.749434577    -0.801360120
 H       -3.996543745     7.660753489     0.466190529
 H       -4.855963046     9.931676656     0.478126135
 H       -1.108521073    11.318024247    -1.248818938
 H       -0.285287548     9.028201542    -1.231280891
 H       -2.937979491    14.641437660     0.770515311
 H       -1.301901946    12.059171022     1.414536981
 H        0.446698782    12.244679727     2.890846049
 H        1.889958130    13.527332529     4.397804740
 H       -0.471358087    17.065899870     3.600631748
 H       -1.809222400    15.805167658     2.003902010
 H        1.957514884    17.943933194     6.044409109
 H        0.226651497    17.561462207     5.783737592
 H        1.264780744    18.092760311     4.419293686
 H       -0.856324154    13.620613962     9.566124426
 H       -0.952175749    13.023046004     7.884303207
 H       -2.409172812    13.668307689     8.701876512
 H       -1.525015777    17.684528825     7.685398889
 H       -2.768806574    18.639311051     5.770694246
 H       -3.516562994    14.664291066     4.281853655
 H       -2.258087136    13.716393276     6.162608723
 H       -3.974550835    18.439717690     3.847994317
 H       -4.556545641    15.571942692     2.747142661
 H       -6.747655023    19.325867905     3.407346654
 H       -6.653901781    21.734257054     3.737995438
 H       -3.966867027    22.131419773     0.399310146
 H       -4.035237482    19.733437510     0.027110809
 H       -5.902413928    23.873932935     3.189177242
 H       -3.974593570    24.117357053     0.778378819
 H       -5.907481580    25.862528335     3.569531844
 H       -5.841104026    28.260849970     3.936176122
 H       -3.114909352    28.661444450     0.567656765
 H       -3.225715951    26.256309120     0.226122203
 H        2.948359421    14.659474365     5.786029281
 H        2.741100092    16.073974907     6.835035031
 H        0.401632461    14.122087859     6.325055242
 H        1.639257408    13.737008546     7.514059552
 H        0.860323228    15.313249943     9.058216830
 H        0.536237151    16.537569917     7.811894714
 H        2.268176566    -1.027400792     0.076211524
 H        2.270248805     0.575088332     0.854266378
 H        2.278905721     0.443981680    -0.924331061
 H       -4.592475546    31.975355731     4.544670994
 H       -3.984055815    30.364365846     5.001347117
 H       -5.719776648    30.604395532     4.672262694
 H       -1.919953915    30.646387465     2.607758085
 H       -2.534429262    31.014025083     0.975276943
 H       -2.646873544    32.236181919     2.264041680
 H       -6.737817091    30.913014029     1.770003261
 H       -5.742649941    32.384763066     1.620141479
 H       -5.581765785    31.070319341     0.426319106
 H       -3.598137927    17.176352462    -0.175698487
 H       -4.876552957    15.963056516    -0.435296779
 H       -5.103686601    17.624520157    -1.023625804
 H       -7.760576178    17.183177115     2.400484719
 H       -7.836925691    17.405238672     0.635931985
 H       -7.337974087    15.834908345     1.317303024
 H       -2.486665078    13.241464728    -2.493477690
 H       -4.127588592    12.646777246    -2.846348334
 H       -3.894954002    14.287969482    -2.189566879
 H       -5.543703270    12.308882084     1.217285457
 H       -5.817776180    13.696515539     0.136591225
 H       -6.100710634    12.042212244    -0.457287070
 H       -0.286916844    -0.348276263    -2.451502633
 H       -0.282644275    -1.905357608    -1.583001768
 H       -1.736104095    -0.872945546    -1.561776043
 H       -0.299225211    -0.367298679     2.446251193
 H       -1.705890392    -0.981368573     1.540997230
 H       -0.193452530    -1.919255960     1.577344896

