139   

Si        0.000000000     0.000000000     0.000000000
 C        1.868976348     0.000000000     0.000000000
 C       -0.659450728     1.724219075     0.000000000
 C        0.186653421     2.834744309    -0.067376715
 C       -0.337504203     4.127672961    -0.065804231
 C       -1.716657990     4.338895653     0.004045873
 C       -2.563814330     3.224202800     0.070732132
 C       -2.043978381     1.932980667     0.067556858
 C       -2.310541366     5.671470236     0.008553183
 C       -1.615523392     6.820045672    -0.052494585
 C       -2.216169659     8.149710378    -0.047563494
 C       -1.377965287     9.270935135    -0.115751585
 C       -1.908312465    10.558870874    -0.113743267
 C       -3.291801004    10.753997766    -0.025780088
 C       -4.129588044     9.636460784     0.047790457
 C       -3.597218466     8.348396612     0.033872182
Si       -4.016123235    12.452001358    -0.021442781
 C       -5.758090741    12.305326897     0.519508660
 C       -6.821731660    12.673145206    -0.206324305
 C       -8.206854076    12.544966840     0.250483539
 C       -9.238545442    12.966687542    -0.603525932
 C      -10.564456046    12.867173114    -0.219781597
 C      -10.900616617    12.299615544     1.026351666
 C       -9.873904975    11.875516993     1.881849106
 C       -8.543910390    12.016955162     1.497525880
 N      -12.277957786    12.226250799     1.361409751
 C      -13.109468770    11.447863225     0.424673727
 C      -12.584816020    11.960759920     2.775714708
 C      -13.077096470     9.915559367     0.601036513
 C      -11.729278962     9.294704619     0.186723188
 N      -11.426080368     9.587218724    -1.227459587
 C      -10.065510375     9.498750357    -1.617932001
 C       -9.043457935     9.022139236    -0.781219647
 C       -7.733558902     8.967795818    -1.242091405
 C       -7.395612880     9.415397451    -2.524652516
 C       -8.415412550     9.910480800    -3.346214964
 C       -9.729335755     9.958903280    -2.906382383
 C      -12.345214438     8.938987377    -2.187441760
 C       -5.999457648     9.336426855    -2.962812796
 C       -5.568521870     9.735829406    -4.166315561
Si       -3.836463553     9.658270224    -4.761345813
 C       -3.826965403     8.584923825    -6.263771658
 C       -4.581224348     7.405513543    -6.270063263
 C       -4.590972062     6.578096317    -7.391536755
 C       -3.844098518     6.905694347    -8.527296912
 C       -3.087613030     8.084520872    -8.516525589
 C       -3.077934070     8.915339705    -7.398115410
 C       -3.823831323     6.070244060    -9.723676718
 C       -4.501977455     4.918617656    -9.864278812
 C       -4.481219084     4.083738278   -11.060920054
 C       -3.736761662     4.412855380   -12.197209993
 C       -3.745589060     3.585847979   -13.319776412
 C       -4.493803850     2.403756476   -13.327739399
 C       -5.239847256     2.071059726   -12.190187906
 C       -5.235307206     2.903078666   -11.073243418
Si       -4.506098105     1.308228237   -14.813487867
 C       -2.880541635     1.449249131   -15.726508462
 C       -4.755869044    -0.470876334   -14.295408184
 C       -5.906154966     1.844763667   -15.928776889
 C       -3.272729413    11.390773108    -5.175628761
 C       -2.694616249     8.904393565    -3.498036843
 C       -3.098891287    13.532741983     1.194491292
 C       -3.899570946    13.167531615    -1.740702224
 C       -0.617706137    -0.871341428    -1.533508068
 C       -0.614510980    -0.880756803     1.529837660
 H        1.273964131     2.732957014    -0.122839425
 H        0.343199195     4.975536619    -0.120150430
 H       -3.641615315     3.366690660     0.124361579
 H       -2.753752851     1.102587685     0.119661229
 H       -3.403467834     5.683726659     0.065043855
 H       -0.523588698     6.809308347    -0.110809194
 H       -0.299762733     9.136475538    -0.174775169
 H       -1.207761203    11.395631356    -0.175615181
 H       -5.219327669     9.735277404     0.121118749
 H       -4.269772131     7.494247171     0.090434372
 H       -5.875838067    11.884688806     1.530611049
 H       -6.737547784    13.092808829    -1.218028605
 H       -8.994559858    13.380098764    -1.582404700
 H      -11.353223631    13.214851292    -0.883658303
 H      -10.101448067    11.435488167     2.846956375
 H       -7.759915557    11.690046357     2.181453316
 H      -13.671993872    12.064050663     2.932506837
 H      -12.091287638    12.728376814     3.399006149
 H      -12.274854412    10.966153017     3.131956286
 H      -13.244206892     8.544135139    -1.692189889
 H      -11.876054877     8.107916275    -2.739018871
 H      -12.671763317     9.701843282    -2.917430790
 H       -9.263549367     8.670213417     0.221524206
 H       -6.958934330     8.573527455    -0.583532253
 H       -8.178874126    10.270071008    -4.348351515
 H      -10.504867408    10.361818784    -3.552357962
 H       -5.326292731     8.918273383    -2.200805476
 H       -6.266090299    10.154372536    -4.909549782
 H       -5.185867689     7.098817904    -5.409771802
 H       -5.187695028     5.667945165    -7.374673957
 H       -2.499329822     8.357716052    -9.390175042
 H       -2.470565209     9.822718195    -7.447176375
 H       -3.197542664     6.450684338   -10.536008875
 H       -5.127799285     4.537944274    -9.051656704
 H       -3.141424844     5.324127798   -12.214683313
 H       -3.145011961     3.898131628   -14.178605121
 H       -5.842549385     1.160278431   -12.138129174
 H       -5.823587693     2.628166989   -10.199637255
 H      -14.155577018    11.812156354     0.543058906
 H      -12.802753073    11.695392173    -0.620198358
 H      -13.287910731     9.643019028     1.651208644
 H      -13.900817311     9.476583913     0.007328492
 H      -10.926371043     9.747885063     0.818404201
 H      -11.736857837     8.203441582     0.397653126
 H        2.266301223    -1.030671793    -0.022531958
 H        2.273883481     0.490220661     0.903293484
 H        2.275129423     0.528465306    -0.880926280
 H       -2.836483478     0.743174036   -16.574639674
 H       -2.027792616     1.222532663   -15.061085721
 H       -2.725775659     2.463696522   -16.133590161
 H       -3.986234927    -0.786833951   -13.567993619
 H       -5.742794044    -0.626345471   -13.825865356
 H       -4.692175680    -1.151729096   -15.162706510
 H       -5.784026775     2.894743492   -16.250306156
 H       -5.958828454     1.220489682   -16.837810391
 H       -6.881155012     1.770147950   -15.414481004
 H       -3.894708002    11.841186221    -5.968760561
 H       -3.332990733    12.049625528    -4.289818814
 H       -2.224729549    11.401252465    -5.522350103
 H       -2.978892634     7.862180288    -3.261291242
 H       -1.650088188     8.884202237    -3.855858393
 H       -2.708513895     9.472680181    -2.546893145
 H       -3.104378027    13.093919020     2.208494952
 H       -2.044859050    13.674292148     0.899415347
 H       -3.562138771    14.533569977     1.266408079
 H       -4.548680888    12.610055639    -2.443310384
 H       -4.217805141    14.224806451    -1.760182706
 H       -2.867315703    13.120799746    -2.129345466
 H       -0.271658536    -0.359934332    -2.450442188
 H       -0.257370746    -1.914077810    -1.577273857
 H       -1.721272032    -0.897201272    -1.568258589
 H       -0.270339592    -0.371954507     2.448655076
 H       -1.717639863    -0.913768281     1.564781718
 H       -0.248294888    -1.921756525     1.568704689

