139   

Si        0.000000000     0.000000000     0.000000000
 C        1.869301287     0.000000000     0.000000000
 C       -0.659216379     1.723334263     0.000000000
 C        0.144730721     2.813044269    -0.347882500
 C       -0.373708608     4.108053822    -0.341309096
 C       -1.704176805     4.342168008     0.015084706
 C       -2.509798932     3.248674052     0.360508639
 C       -1.996550313     1.954825501     0.349316977
 C       -2.291126645     5.676868805     0.036972773
 C       -1.634219739     6.806408188    -0.275839315
 C       -2.229970394     8.137608409    -0.251038834
 C       -1.437123803     9.239166881    -0.599818954
 C       -1.965592850    10.526492211    -0.589520380
 C       -3.307637563    10.740213294    -0.244862434
 C       -4.099208857     9.643457743     0.105601600
 C       -3.561117185     8.356719200     0.111967751
Si       -3.981239777    12.456097690    -0.239555972
 C       -3.680967573    13.257076207    -1.860989021
 C       -3.064216780    12.695540041    -2.909673875
 C       -2.841768684    13.366466425    -4.191045034
 C       -2.182939868    12.678347602    -5.220006193
 C       -1.951810114    13.275748764    -6.448288957
 C       -2.333470270    14.612151392    -6.686607290
 C       -2.998722015    15.301718516    -5.651727865
 C       -3.263877945    14.674615913    -4.441561209
 N       -2.104075845    15.229558110    -7.929565117
 C       -0.989959792    14.732520887    -8.763039542
 C       -2.212488986    16.699928531    -7.946726873
 C       -1.282173739    14.939401669   -10.261819689
 C       -2.450113282    14.069667085   -10.768954891
 N       -2.103285705    12.690329038   -11.163644382
 C       -1.874356173    11.811784098   -10.068293862
 C       -2.990342244    11.485925398    -9.272857437
 C       -2.844319841    10.636650455    -8.189604862
 C       -1.598796571    10.059117677    -7.889185252
 C       -0.503135218    10.367319706    -8.696218438
 C       -0.632850751    11.230173291    -9.781041475
 C       -1.115269736    12.619125236   -12.252011139
 C       -1.508365905     9.169280538    -6.730384404
 C       -0.389926778     8.552001503    -6.328302360
Si       -0.283880577     7.437918954    -4.874745180
 C       -1.937155581     7.307817172    -4.071090124
 C       -2.537898631     6.076754840    -3.792137565
 C       -3.790750059     6.026612275    -3.182593116
 C       -4.478881326     7.203052421    -2.863631028
 C       -3.875477760     8.432770780    -3.145702267
 C       -2.614471091     8.486479980    -3.732530677
 C       -5.787979787     7.109533366    -2.226180182
 C       -6.523090237     8.172319195    -1.857183104
 C       -7.832295696     8.101412249    -1.219456185
 C       -8.462546225     6.888908310    -0.924122677
 C       -9.715191470     6.868326221    -0.313478831
 C      -10.364229325     8.063058870     0.021653515
 C       -9.733981789     9.277676646    -0.270850497
 C       -8.483425767     9.295162684    -0.884418873
Si      -12.022553087     8.002230293     0.829536938
 C      -11.869461152     7.074054980     2.444720238
 C      -12.662138306     9.725962708     1.166772417
 C      -13.210388088     7.115399137    -0.308718380
 C        0.324913833     5.764738451    -5.434223577
 C        0.910278471     8.171551000    -3.636484136
 C       -5.827046404    12.432203103     0.059005297
 C       -3.128855014    13.436721596     1.101686459
 C       -0.625094801    -0.867422500    -1.533135863
 C       -0.601754873    -0.893727532     1.528263577
 H        1.193709967     2.692097649    -0.630721957
 H        0.271228565     4.939806642    -0.619214047
 H       -3.549393393     3.410427295     0.640033251
 H       -2.672842911     1.141283521     0.625424593
 H       -3.343723783     5.709987153     0.334606997
 H       -0.585204284     6.777585226    -0.583050296
 H       -0.397608172     9.087013727    -0.884110642
 H       -1.296737805    11.349795630    -0.858606004
 H       -5.151495665     9.747431845     0.386683960
 H       -4.198611985     7.518245389     0.389888596
 H       -4.061215064    14.288894756    -1.913526561
 H       -2.678634760    11.665281743    -2.889515164
 H       -1.851694852    11.649068774    -5.062444110
 H       -1.467072831    12.692513641    -7.231417297
 H       -3.330591976    16.325219285    -5.787801800
 H       -3.798283006    15.229510698    -3.669539337
 H       -1.902688641    17.104868409    -8.923356417
 H       -1.602766657    17.187606672    -7.167884562
 H       -3.271570027    16.983889682    -7.806209622
 H       -1.493869740    13.198269477   -13.111825973
 H       -1.020066377    11.569272912   -12.582432606
 H       -0.113783824    12.995672574   -11.993652517
 H       -3.962706753    11.914076019    -9.511966280
 H       -3.711968931    10.407382907    -7.568096551
 H        0.471907853     9.930134358    -8.482152396
 H        0.237141246    11.454880860   -10.389426608
 H       -2.475623883     9.038561008    -6.219885028
 H        0.561281839     8.684538720    -6.864515748
 H       -2.052305991     5.126142077    -4.027292514
 H       -4.235317401     5.059297839    -2.956805758
 H       -4.384211207     9.363858715    -2.895026018
 H       -2.182113495     9.478189620    -3.902168484
 H       -6.148846220     6.091145320    -2.060584048
 H       -6.153035046     9.189417541    -2.028481522
 H       -7.977605066     5.946853396    -1.173614483
 H      -10.160060432     5.890189940    -0.110450018
 H      -10.193847603    10.240423125    -0.032474775
 H       -8.010379952    10.250539302    -1.107023036
 H       -0.035172691    15.235445549    -8.491228762
 H       -0.832579926    13.642527351    -8.582656536
 H       -1.515864216    16.001528163   -10.464862742
 H       -0.362074985    14.724985975   -10.836255284
 H       -3.244743214    14.025909802    -9.985119043
 H       -2.917733930    14.551704688   -11.657170691
 H        2.266876255    -1.028997940     0.058309740
 H        2.270957641     0.559748369     0.863912599
 H        2.277966860     0.459638864    -0.916981788
 H      -12.841687388     7.006932568     2.963847276
 H      -11.160299702     7.575692207     3.127990434
 H      -11.502941129     6.044288980     2.287445916
 H      -11.987011350    10.284646609     1.839087247
 H      -12.766782373    10.308385737     0.234016145
 H      -13.655728538     9.694462443     1.648873490
 H      -12.873524109     6.085937322    -0.524047888
 H      -14.219857838     7.050969699     0.134020199
 H      -13.303435118     7.640762160    -1.276721151
 H       -0.368158707     5.310582636    -6.166048554
 H        1.314065920     5.835410222    -5.919341459
 H        0.421060945     5.064526847    -4.584845267
 H        0.567377141     9.162978154    -3.287899568
 H        1.011750029     7.520914822    -2.749846932
 H        1.915493467     8.301796476    -4.072575201
 H       -6.354991708    11.877922471    -0.737959988
 H       -6.074644382    11.956460962     1.024638113
 H       -6.242105968    13.455207891     0.078891165
 H       -2.036998983    13.478098895     0.937068260
 H       -3.498458233    14.475846555     1.142794369
 H       -3.295004909    12.982582269     2.095131790
 H       -0.282167167    -0.356235455    -2.450684012
 H       -0.268572193    -1.911334665    -1.579012359
 H       -1.729069318    -0.889014601    -1.561816960
 H       -0.287718418    -0.366242241     2.447431297
 H       -1.702698799    -0.971210290     1.550447541
 H       -0.195761365    -1.919494214     1.578203445

