139   

Si        0.000000000     0.000000000     0.000000000
 C        1.869588451     0.000000000     0.000000000
 C       -0.629637651     1.735732005     0.000000000
 C        0.080981337     2.746547441    -0.656796793
 C       -0.390394182     4.058655560    -0.659596631
 C       -1.586295030     4.389920169    -0.016099012
 C       -2.299237746     3.375634097     0.636018307
 C       -1.828523440     2.064720382     0.644303174
 C       -2.116788844     5.749356292     0.006194020
 C       -1.527987944     6.807977945    -0.575793199
 C       -2.054416592     8.168853616    -0.556244414
 C       -3.249478171     8.506576700     0.085349404
 C       -3.715055448     9.821176219     0.078540290
 C       -2.987955779    10.827857906    -0.564672526
 C       -1.789775276    10.493570329    -1.208011300
 C       -1.331955012     9.178576372    -1.205673200
Si       -3.592289518    12.571169621    -0.581400769
 C       -2.144602536    13.674603058    -0.788832941
 C       -1.959987431    14.533552620    -1.799837992
 C       -0.789439822    15.402246201    -1.935342415
 C       -0.704885136    16.262534723    -3.038391383
 C        0.382312917    17.104437909    -3.212314656
 C        1.411124723    17.153786884    -2.247269687
 C        1.325049217    16.289998544    -1.137067576
 C        0.253737596    15.417577247    -1.004546488
 N        2.515760892    18.005457966    -2.418335814
 C        2.338719363    19.192851024    -3.270971260
 C        3.338496844    18.276888350    -1.226736156
 C        1.340714552    20.209507860    -2.693495830
 C        1.113480692    21.360889889    -3.686093783
 N        0.218569827    22.407594309    -3.163909293
 C        0.661565777    23.147201050    -2.053411260
 C        2.041291996    23.321513759    -1.812019965
 C        2.476619468    24.050882711    -0.716869179
 C        1.568133479    24.675585659     0.148452861
 C        0.202082036    24.529256421    -0.110408961
 C       -0.251621148    23.787502205    -1.192385559
 C       -1.197135983    21.999833545    -3.169519765
 C        2.081459887    25.434038895     1.290713062
 C        1.306157252    26.069371734     2.179189686
Si        1.904193824    27.028554661     3.620855915
 C        1.312192362    28.766975417     3.440549272
 C        0.987063375    29.273936212     2.176436122
 C        0.539972969    30.585518454     2.036869438
 C        0.414974671    31.422942064     3.153209536
 C        0.745025033    30.914494524     4.412859680
 C        1.189713400    29.600833041     4.556780383
 C       -0.057742290    32.789390130     2.955788930
 C       -0.225175289    33.691228201     3.937807360
 C       -0.698032353    35.057439710     3.738713160
 C       -1.027913000    35.565294318     2.478876236
 C       -1.476036984    36.877642148     2.334495921
 C       -1.611871461    37.711133935     3.450377093
 C       -1.282935999    37.204402257     4.713450924
 C       -0.829268693    35.895023653     4.854055673
Si       -2.205966889    39.447919635     3.250862039
 C       -3.483565681    39.526861174     1.888350146
 C       -2.977668121    40.055021756     4.841749553
 C       -0.741476616    40.521781548     2.810276078
 C        1.187287614    26.258556172     5.164929880
 C        3.768441052    27.042234598     3.720419898
 C       -4.815308442    12.761643762    -1.979282889
 C       -4.412337552    12.990891296     1.044117824
 C       -0.632817184    -0.853810921    -1.536815566
 C       -0.605442695    -0.904556169     1.519960826
 H        1.021072590     2.549626125    -1.179587142
 H        0.184552811     4.827291106    -1.173356935
 H       -3.232742106     3.611573706     1.143753171
 H       -2.427292971     1.316978666     1.171465132
 H       -3.061183954     5.863422041     0.546152035
 H       -0.583439172     6.691870886    -1.116055301
 H       -3.829286422     7.740922621     0.597367599
 H       -4.656870339    10.024514932     0.595160305
 H       -1.180986054    11.242479378    -1.726007658
 H       -0.399813384     8.936192685    -1.713020564
 H       -1.400619720    13.578728391     0.018748981
 H       -2.683458905    14.652529045    -2.617034112
 H       -1.501432904    16.263896513    -3.783234111
 H        0.426702389    17.730625735    -4.098142143
 H        2.100451343    16.285159812    -0.377398486
 H        0.223476739    14.745809329    -0.144519089
 H        4.134473155    19.000533671    -1.469391152
 H        3.840815066    17.343705411    -0.912900327
 H        2.757659045    18.673939541    -0.377538003
 H       -1.411925167    21.380333147    -4.056172514
 H       -1.832855404    22.900541536    -3.248544093
 H       -1.491658362    21.431268073    -2.271708110
 H        2.776412884    22.878660399    -2.477122094
 H        3.547750237    24.150150757    -0.537388852
 H       -0.528665126    25.006414032     0.545534877
 H       -1.321239978    23.703517212    -1.356943635
 H        3.177719267    25.435632616     1.351354249
 H        0.207486316    26.048270830     2.091925300
 H        1.067315970    28.665526412     1.269071560
 H        0.287635141    30.961846533     1.047162727
 H        0.656459263    31.544410632     5.296025753
 H        1.430599576    29.258131262     5.566618565
 H       -0.278187533    33.050871474     1.916382537
 H       -0.004824264    33.430660015     4.977136312
 H       -0.935556057    34.936167737     1.595262232
 H       -1.716322216    37.217985182     1.323368326
 H       -1.369862219    37.808292449     5.620893341
 H       -0.576765575    35.520290227     5.844304351
 H        3.335890054    19.667827759    -3.417120641
 H        2.019622179    18.856113837    -4.283938594
 H        0.380166720    19.712307456    -2.455844070
 H        1.710410909    20.604021412    -1.726970790
 H        2.081032398    21.832874750    -3.972859377
 H        0.678904393    20.974750514    -4.636550200
 H        2.268778386    -1.027299348     0.072788183
 H        2.269348466     0.572941493     0.856386133
 H        2.279677250     0.448710678    -0.921578264
 H       -3.907794342    40.542450676     1.796415072
 H       -4.321321882    38.833670952     2.086115969
 H       -3.054005452    39.258283402     0.907484621
 H       -3.789136610    39.382987326     5.174836996
 H       -2.237490112    40.116261118     5.658717257
 H       -3.412468701    41.062518824     4.715078095
 H       -0.263844506    40.185687005     1.872452967
 H       -1.041241928    41.575633906     2.674067116
 H        0.030218979    40.492810612     3.600578952
 H        0.083972991    26.321384885     5.170398875
 H        1.458385157    25.189780796     5.239586300
 H        1.554324979    26.759163773     6.077705755
 H        4.216292020    27.482863770     2.810945245
 H        4.119993034    27.639497322     4.580873274
 H        4.173802242    26.021349749     3.834974557
 H       -4.351879724    12.524324100    -2.954323920
 H       -5.677405157    12.082272603    -1.852962771
 H       -5.208110576    13.792227202    -2.034577842
 H       -3.735761617    12.801243865     1.897069179
 H       -4.699786293    14.057447532     1.080765677
 H       -5.327330746    12.394823374     1.204739172
 H       -0.287732860    -0.341343711    -2.452802976
 H       -0.285563700    -1.900635168    -1.588206943
 H       -1.737370521    -0.866132018    -1.563803899
 H       -0.313195528    -0.373609056     2.444065087
 H       -1.704815633    -1.005556752     1.525906952
 H       -0.180668235    -1.922774140     1.574146109

