139   

Si        0.000000000     0.000000000     0.000000000
 C        1.869172343     0.000000000     0.000000000
 C       -0.654767065     1.726064465     0.000000000
 C        0.194205609     2.831813997    -0.102620345
 C       -0.323727733     4.127129748    -0.100470987
 C       -1.699731014     4.346152966     0.002454075
 C       -2.549688145     3.236287634     0.103865247
 C       -2.035830003     1.942508897     0.102255148
 C       -2.286006063     5.682548496     0.008804221
 C       -1.584371495     6.825186888    -0.081520513
 C       -2.169373088     8.162124093    -0.075288080
 C       -1.317322363     9.270188809    -0.176543197
 C       -1.828954928    10.565344903    -0.174890578
 C       -3.209105926    10.781715465    -0.080156779
 C       -4.062169522     9.677799460     0.020106956
 C       -3.545802073     8.382441661     0.025589241
Si       -3.893432739    12.495311411    -0.077430653
 C       -5.648977137    12.413942405    -0.594443615
 C       -6.696037967    12.814891710     0.138517448
 C       -8.088299765    12.734926458    -0.307264789
 C       -9.103088399    13.186330842     0.548625840
 C      -10.435527759    13.131985062     0.173391117
 C      -10.807482461    12.570185465    -1.067018440
 C       -9.789380473    12.115070168    -1.925791189
 C       -8.455275571    12.220246199    -1.553568924
 N      -12.165537320    12.521519360    -1.435496337
 C      -13.142983730    12.315660855    -0.351269233
 C      -12.499454397    11.756329666    -2.649064939
 C      -12.974390913    10.964306938     0.361585768
 C      -13.992177513    10.826885895     1.505193293
 N      -13.981410563     9.493164670     2.131139433
 C      -14.360127562     8.400706833     1.330764979
 C      -15.252554404     8.579970915     0.251989785
 C      -15.626499911     7.504223008    -0.537437014
 C      -15.173592737     6.207009139    -0.260622137
 C      -14.315009536     6.025470822     0.827617745
 C      -13.916425006     7.094791080     1.618215207
 C      -12.826904871     9.294453212     3.024501035
 C      -15.599242698     5.106343808    -1.126850794
 C      -15.229071109     3.830224192    -0.957003424
Si      -15.738491275     2.425353123    -2.016594011
 C      -16.636387305     1.203515449    -0.965127482
 C      -17.239216123     1.607981683     0.230580375
 C      -17.918476376     0.687120548     1.027401310
 C      -18.017244470    -0.653233634     0.643939014
 C      -17.416603814    -1.054199597    -0.556986164
 C      -16.734691680    -0.137959164    -1.353853650
 C      -18.717676558    -1.651695174     1.445358222
 C      -19.334123531    -1.399840105     2.612648102
 C      -20.034576439    -2.398076238     3.414195359
 C      -20.131082221    -3.739205304     3.032837152
 C      -20.810504473    -4.659915641     3.829749307
 C      -21.417489607    -4.257040554     5.024166728
 C      -21.323065084    -2.913459929     5.408089566
 C      -20.637233726    -1.997650807     4.613974135
Si      -22.317388930    -5.475218727     6.080197522
 C      -23.040353432    -6.832851184     5.017485329
 C      -21.104320576    -6.204990287     7.299785135
 C      -23.704816935    -4.623087224     6.999083330
 C      -16.875042751     2.971736624    -3.393404980
 C      -14.195683602     1.651035712    -2.731675433
 C       -3.708476875    13.206620120     1.638874306
 C       -2.977473608    13.557714431    -1.311634357
 C       -0.621761527    -0.872709134    -1.530989213
 C       -0.613204797    -0.878611007     1.531604249
 H        1.279136778     2.724380405    -0.186021522
 H        0.359481138     4.970867885    -0.180750712
 H       -3.625021224     3.384882280     0.184898831
 H       -2.747749332     1.116320413     0.183876001
 H       -3.376463731     5.703425471     0.095174931
 H       -0.493980032     6.803858720    -0.167913568
 H       -0.242423723     9.119821107    -0.256625032
 H       -1.116316896    11.390685027    -0.254359233
 H       -5.149118679     9.789285003     0.096545112
 H       -4.229611910     7.539321668     0.106886564
 H       -5.789645311    11.994304957    -1.604036531
 H       -6.587996082    13.239065183     1.145490396
 H       -8.841824404    13.600433151     1.523049250
 H      -11.192794174    13.524338321     0.845951085
 H      -10.028778348    11.681331355    -2.891629064
 H       -7.685957198    11.874406963    -2.246513966
 H      -13.585472157    11.805792739    -2.836332112
 H      -12.205600961    10.694975851    -2.595743036
 H      -12.004957759    12.223128531    -3.520197709
 H      -12.599804255    10.228451044     3.565271104
 H      -11.915233289     8.971203467     2.495125056
 H      -13.085681260     8.538953538     3.788552293
 H      -15.649215483     9.564770082     0.024112965
 H      -16.297948097     7.672383731    -1.380172535
 H      -13.947921204     5.025929681     1.068330461
 H      -13.250597039     6.906694084     2.454689926
 H      -16.262469529     5.428458142    -1.940486812
 H      -14.560816391     3.537212151    -0.130868739
 H      -17.196232890     2.645115142     0.580565915
 H      -18.375668572     1.024988171     1.955892717
 H      -17.482034042    -2.093435410    -0.873325122
 H      -16.284889868    -0.508542672    -2.278790281
 H      -18.712951356    -2.661355763     1.024316948
 H      -19.339062507    -0.389858017     3.033551144
 H      -19.672687599    -4.077432666     2.105188800
 H      -20.849711898    -5.695056298     3.479372341
 H      -21.777878939    -2.540530538     6.329938234
 H      -20.573021282    -0.958140441     4.930769253
 H      -13.050804603    13.156766099     0.372963666
 H      -14.165901228    12.403905137    -0.782841633
 H      -13.096299716    10.133128695    -0.360385490
 H      -11.942793796    10.863463984     0.751090808
 H      -13.793305972    11.585406548     2.296244197
 H      -15.024588391    11.038457719     1.143815285
 H        2.266941494    -1.030117059     0.035546611
 H        2.273516483     0.539936637     0.874859312
 H        2.275486581     0.478601586    -0.908701288
 H      -23.650317663    -7.529313080     5.619904184
 H      -22.254015500    -7.428068043     4.521356104
 H      -23.693142742    -6.417812629     4.228231939
 H      -20.273147538    -6.717106631     6.782412038
 H      -20.659677535    -5.423349962     7.941769770
 H      -21.592181617    -6.942942682     7.960434865
 H      -24.388907924    -4.107544458     6.300838621
 H      -24.305215865    -5.347920709     7.577095386
 H      -23.323540163    -3.869426452     7.710070407
 H      -17.793814775     3.439418107    -2.994587506
 H      -16.383100348     3.705683642    -4.055888659
 H      -17.188229449     2.115920970    -4.017962968
 H      -13.544835495     1.243231416    -1.937112371
 H      -14.437299086     0.824148794    -3.421740084
 H      -13.603096200     2.393435058    -3.296587768
 H       -4.244954862    12.595296736     2.387275299
 H       -2.647755620    13.243249333     1.945726378
 H       -4.107531587    14.234953175     1.694624513
 H       -2.999418643    13.110504319    -2.321958372
 H       -3.431194346    14.562929868    -1.384764792
 H       -1.918881065    13.690506679    -1.028605570
 H       -0.276340415    -0.364355388    -2.449547570
 H       -0.263883282    -1.916424540    -1.572915110
 H       -1.725513075    -0.896201110    -1.563346884
 H       -0.273698936    -0.364601502     2.449341611
 H       -1.716279706    -0.917155780     1.564427710
 H       -0.241901226    -1.917616636     1.574943779

