139   

Si        0.000000000     0.000000000     0.000000000
 C        1.869485984     0.000000000     0.000000000
 C       -0.624500206     1.737476032     0.000000000
 C        0.040005461     2.728113204     0.731872157
 C       -0.427337982     4.041711905     0.735316296
 C       -1.572966981     4.394497088     0.016226445
 C       -2.239669464     3.400521922    -0.711649562
 C       -1.772883985     2.088224169    -0.720130036
 C       -2.099141315     5.755283585    -0.009880109
 C       -1.555778978     6.799471522     0.638577749
 C       -2.084563864     8.159438663     0.610420729
 C       -1.417801665     9.157338637     1.334231386
 C       -1.885566421    10.468925909     1.336867791
 C       -3.038177392    10.811806220     0.619122924
 C       -3.705955933     9.818074042    -0.103504222
 C       -3.231234435     8.506850744    -0.108924106
Si       -3.658636808    12.549578992     0.622128054
 C       -5.391296544    12.548954039     0.026642745
 C       -5.841562133    13.201101445    -1.053261285
 C       -7.234296491    13.180749701    -1.503768166
 C       -7.588004360    13.903975595    -2.651246506
 C       -8.892377194    13.917088828    -3.118802432
 C       -9.912021026    13.239759144    -2.415942191
 C       -9.556836678    12.513870812    -1.262189133
 C       -8.236330382    12.471463568    -0.835266709
 N      -11.235067101    13.254878751    -2.893017383
 C      -11.655959527    14.427462085    -3.679866922
 C      -12.281812686    12.787876610    -1.967528712
 C      -11.638853236    15.733750697    -2.870021063
 C      -11.989631193    16.931100371    -3.767709394
 N      -12.019431614    18.210570518    -3.036100471
 C      -12.984583027    18.340323873    -2.019396798
 C      -14.232490054    17.692645595    -2.143413712
 C      -15.189155266    17.813995215    -1.148462410
 C      -14.967628910    18.618176205    -0.021712886
 C      -13.743565140    19.284588397     0.084261404
 C      -12.767067072    19.159589719    -0.895107703
 C      -10.670564907    18.724784064    -2.741755312
 C      -16.011783927    18.711414560     1.000294191
 C      -15.907842916    19.447762556     2.114403100
Si      -17.186713807    19.593697961     3.417900280
 C      -16.460390012    18.995104177     5.005141659
 C      -15.369650569    18.119331602     4.996075727
 C      -14.817523798    17.664395154     6.192898050
 C      -15.346590039    18.067567372     7.422195994
 C      -16.442126677    18.941356824     7.427860788
 C      -16.994315930    19.400118960     6.234455788
 C      -14.801215169    17.616893724     8.698706184
 C      -13.756537423    16.781978649     8.831136804
 C      -13.209568236    16.330049896    10.106292671
 C      -13.734091850    16.733341549    11.337400329
 C      -13.179481460    16.276300357    12.532426790
 C      -12.092297386    15.395862092    12.522655552
 C      -11.566233476    14.988916558    11.290130105
 C      -12.116684147    15.453289150    10.098145964
Si      -11.356768871    14.789753333    14.104053215
 C      -12.669136137    14.715358323    15.433581817
 C      -10.642549555    13.078843493    13.863611083
 C      -10.004803530    15.974288630    14.614683311
 C      -17.662510578    21.394657267     3.562287200
 C      -18.694928448    18.564667124     3.027935341
 C       -3.645454652    13.228234809     2.362996871
 C       -2.551812453    13.578586057    -0.474390124
 C       -0.606219051    -0.908647764    -1.517142782
 C       -0.633984881    -0.851108593     1.538098473
 H        0.939648421     2.513370360     1.315346911
 H        0.110586349     4.794769468     1.308621058
 H       -3.133700977     3.653258761    -1.278948417
 H       -2.334130387     1.357213259    -1.308537011
 H       -3.002022517     5.884483315    -0.614469976
 H       -0.653068055     6.671690162     1.243049263
 H       -0.522951990     8.907343368     1.900949490
 H       -1.323324124    11.205063111     1.917730301
 H       -4.609991424    10.030625132    -0.684240538
 H       -3.767005987     7.751581282    -0.681352209
 H       -6.071222692    11.949318076     0.653358538
 H       -5.188778744    13.808113709    -1.694530996
 H       -6.823170107    14.458083701    -3.196565292
 H       -9.120619010    14.458738612    -4.031892526
 H      -10.306327853    11.969509313    -0.696334919
 H       -7.987064000    11.885148752     0.051128873
 H      -13.273871142    12.876769961    -2.441060392
 H      -12.302931862    13.342001835    -1.014413368
 H      -12.125490453    11.714389032    -1.755732935
 H      -10.003740447    18.549402895    -3.602618080
 H      -10.210523752    18.268308789    -1.849665464
 H      -10.724227675    19.819379790    -2.598407589
 H      -14.451945937    17.087792793    -3.018279208
 H      -16.136589945    17.284772341    -1.255273108
 H      -13.543545220    19.918289248     0.950413002
 H      -11.831353233    19.695664589    -0.770789814
 H      -16.901273182    18.111953156     0.766032659
 H      -15.002563124    20.042271743     2.320063532
 H      -14.914428803    17.768476433     4.063652866
 H      -13.966244160    16.986610673     6.160306112
 H      -16.868624893    19.267280173     8.374590280
 H      -17.846822836    20.081364659     6.300409407
 H      -15.312747175    18.013854679     9.580432112
 H      -13.245892002    16.385182088     7.948462726
 H      -14.584005921    17.412594731    11.372744053
 H      -13.631548836    16.629793847    13.463326257
 H      -10.718488651    14.301746824    11.220016242
 H      -11.692255326    15.127067307     9.150310847
 H      -10.997668985    14.508135274    -4.574779729
 H      -12.677212689    14.231199077    -4.079058014
 H      -12.350109418    15.669769565    -2.023605246
 H      -10.644554089    15.881968076    -2.404883842
 H      -11.254718302    17.022788319    -4.599702007
 H      -12.977729274    16.779807521    -4.258535044
 H        2.269388044    -1.027999307    -0.055396128
 H        2.279272694     0.465526334     0.913331230
 H        2.268412803     0.558892531    -0.866078520
 H      -12.265846424    14.288042118    16.368894974
 H      -13.520085319    14.083817896    15.120127315
 H      -13.067231102    15.716750503    15.673355996
 H      -11.407469106    12.375999731    13.486547011
 H       -9.806724770    13.080785374    13.142381212
 H      -10.256725733    12.670049288    14.814466777
 H      -10.401436337    16.993589996    14.771122213
 H       -9.523358856    15.654647598    15.555484764
 H       -9.217681585    16.043023747    13.842360162
 H      -16.803160481    22.014099686     3.877049134
 H      -18.018594882    21.790241706     2.593567174
 H      -18.470007153    21.544844303     4.299672283
 H      -18.439109454    17.492845020     2.942087477
 H      -19.459039116    18.656389431     3.820598941
 H      -19.161715379    18.877383556     2.077065060
 H       -4.236465347    12.592328467     3.046768937
 H       -2.620442385    13.289240692     2.768048967
 H       -4.078952051    14.244151413     2.397559276
 H       -2.549055493    13.198020773    -1.512250944
 H       -2.879310906    14.632865392    -0.502815127
 H       -1.506550378    13.563289202    -0.117135739
 H       -0.312402565    -0.382864499    -2.443569225
 H       -0.183320711    -1.927968025    -1.566561096
 H       -1.705806283    -1.008091412    -1.522759096
 H       -0.287494937    -0.338682716     2.453503667
 H       -1.738573359    -0.860968692     1.565201615
 H       -0.289039697    -1.898646579     1.590094063

