139   

Si        0.000000000     0.000000000     0.000000000
 C        1.869153210     0.000000000     0.000000000
 C       -0.654401943     1.726222485     0.000000000
 C        0.178821729     2.823654150    -0.236050181
 C       -0.336281784     4.120077606    -0.231584064
 C       -1.693997451     4.348381341     0.006272787
 C       -2.528483664     3.246853177     0.239785935
 C       -2.017536224     1.951958458     0.235282524
 C       -2.277621410     5.685841447     0.020650361
 C       -1.591523396     6.822366218    -0.188304734
 C       -2.175603696     8.159579557    -0.173824279
 C       -1.341714471     9.261806809    -0.408001054
 C       -1.854111614    10.555790716    -0.403868367
 C       -3.216614992    10.780288658    -0.160524203
 C       -4.049107493     9.682830788     0.074181702
 C       -3.533041005     8.386571998     0.066403576
Si       -3.861899273    12.508837752    -0.162470194
 C       -3.617963064    13.265701624    -1.812976033
 C       -3.053529095    12.649668224    -2.860274215
 C       -2.862886260    13.263084299    -4.175838431
 C       -2.256366773    12.506847786    -5.190850324
 C       -2.052360731    13.038912168    -6.453036497
 C       -2.492808409    14.344772573    -6.754077721
 C       -3.101692142    15.103523159    -5.740999223
 C       -3.263079221    14.568847992    -4.467586928
 N       -2.263322979    14.848125461    -8.056583846
 C       -2.683253854    13.952146712    -9.155393520
 C       -2.646549073    16.251377965    -8.287242300
 C       -4.132760354    13.450264162    -9.017218084
 C       -4.811511481    13.157509323   -10.365059017
 N       -5.013456143    14.321646924   -11.259292750
 C       -5.311625759    15.540881960   -10.612954362
 C       -6.371927145    15.555786816    -9.680909872
 C       -6.703564778    16.726097848    -9.020771980
 C       -6.019378487    17.923259725    -9.283089904
 C       -4.992032095    17.910804533   -10.228690933
 C       -4.646652067    16.743719159   -10.901045292
 C       -4.050419128    14.382517182   -12.370259962
 C       -6.409662275    19.133644851    -8.557023300
 C       -5.826131313    20.326727338    -8.728369467
Si       -6.273545261    21.870037219    -7.848601573
 C       -4.765093810    22.416295485    -6.936093945
 C       -3.847037585    21.460263970    -6.486445380
 C       -2.701165498    21.850357811    -5.795312731
 C       -2.451114237    23.200318826    -5.531940149
 C       -3.374380592    24.154209386    -5.980012853
 C       -4.519063267    23.768533938    -6.674030881
 C       -1.264936192    23.653207079    -4.812130103
 C       -0.307445076    22.841116177    -4.332233112
 C        0.879820297    23.290049274    -3.612138566
 C        1.137701793    24.637492067    -3.348384582
 C        2.286432563    25.021360197    -2.655998327
 C        3.202973299    24.063796952    -2.212652711
 C        2.946809595    22.711041796    -2.475604290
 C        1.799531259    22.330877992    -3.166033543
Si        4.732363549    24.538214467    -1.293991563
 C        4.850968869    26.394782550    -1.113378489
 C        4.676703687    23.754388330     0.401737910
 C        6.219088216    23.915026992    -2.239776905
 C       -6.780322863    23.144075788    -9.116008911
 C       -7.655629148    21.601814258    -6.623785172
 C       -5.687367010    12.540283375     0.235240105
 C       -2.925962605    13.506741616     1.110103971
 C       -0.625684432    -0.869585456    -1.530993922
 C       -0.607486154    -0.884112237     1.531064962
 H        1.249234331     2.708783317    -0.427546185
 H        0.334369995     4.957360327    -0.416708986
 H       -3.589491931     3.402696389     0.426673564
 H       -2.717100512     1.132489619     0.422591731
 H       -3.353084342     5.713028652     0.219858380
 H       -0.516080479     6.795002203    -0.387205076
 H       -0.281005676     9.106481401    -0.596385648
 H       -1.155474480    11.377024439    -0.593848696
 H       -5.119127531     9.797133351     0.268067828
 H       -4.202690470     7.548686901     0.251229962
 H       -3.981575090    14.302111469    -1.887921018
 H       -2.687429994    11.613394826    -2.811209631
 H       -1.929471858    11.487666940    -4.981252303
 H       -1.549029872    12.449231070    -7.214537891
 H       -3.459538626    16.110236709    -5.937467838
 H       -3.727404366    15.181017156    -3.693555579
 H       -2.293109427    16.565330627    -9.284614948
 H       -2.139682281    16.897278965    -7.548668597
 H       -3.734254921    16.434345660    -8.242249762
 H       -4.043728580    13.410637053   -12.894476060
 H       -3.019254156    14.623939696   -12.068397510
 H       -4.390444167    15.134654850   -13.105633826
 H       -6.931168077    14.642858249    -9.488572231
 H       -7.517231536    16.717244582    -8.294401875
 H       -4.449953474    18.830341207   -10.456712729
 H       -3.845288644    16.774954153   -11.632234120
 H       -7.235196955    18.970280605    -7.852128727
 H       -5.000915670    20.459494535    -9.447423265
 H       -3.990074550    20.388357499    -6.662808506
 H       -1.999141532    21.088644422    -5.459510725
 H       -3.197709763    25.210419042    -5.785464685
 H       -5.202569867    24.556170669    -7.001778990
 H       -1.195777998    24.736714414    -4.679151969
 H       -0.377947086    21.757204464    -4.465464992
 H        0.440044918    25.403094745    -3.683072942
 H        2.433552566    26.090398921    -2.479797851
 H        3.627750542    21.918279889    -2.152805554
 H        1.617081075    21.275337434    -3.360594432
 H       -2.543063705    14.494174316   -10.115904076
 H       -1.976384960    13.092934599    -9.184504916
 H       -4.152638690    12.536024407    -8.391670537
 H       -4.728923497    14.190158326    -8.443787007
 H       -4.244846265    12.371275645   -10.909244144
 H       -5.826789117    12.730213428   -10.175067019
 H        2.266809140    -1.029027592     0.059700998
 H        2.272247977     0.560409761     0.862682514
 H        2.276969980     0.457547214    -0.918653633
 H        5.756930610    26.682867463    -0.550464184
 H        3.981363581    26.806085891    -0.570518239
 H        4.901214070    26.894548665    -2.097210992
 H        3.796488504    24.100941918     0.973318689
 H        4.614924986    22.653558678     0.337730657
 H        5.576403804    24.004775468     0.990849724
 H        6.259270029    24.352085195    -3.254135335
 H        7.160956900    24.177296371    -1.726535018
 H        6.196225789    22.816965312    -2.354946589
 H       -5.946664690    23.387790347    -9.799242742
 H       -7.619185316    22.777527452    -9.735615464
 H       -7.107241898    24.084536207    -8.638858723
 H       -7.382150725    20.844453710    -5.866622906
 H       -7.897089465    22.533963786    -6.081557765
 H       -8.578572548    21.259569167    -7.124926203
 H       -6.272686509    11.980290288    -0.516540675
 H       -5.893028624    12.094531309     1.224443656
 H       -6.076576303    13.574060310     0.250498646
 H       -1.845783707    13.542857071     0.880169579
 H       -3.290649241    14.547994693     1.155832791
 H       -3.035503140    13.068969908     2.118695304
 H       -0.279010612    -0.362623735    -2.449753989
 H       -0.272468529    -1.914879267    -1.573297328
 H       -1.729665211    -0.887965743    -1.562288791
 H       -0.285593868    -0.358606498     2.448703044
 H       -1.709426065    -0.947520116     1.556095361
 H       -0.213908811    -1.914607903     1.582274067

