139   

Si        0.000000000     0.000000000     0.000000000
 C        1.869154817     0.000000000     0.000000000
 C       -0.656487431     1.725430350     0.000000000
 C        0.193313919     2.834238352    -0.045060815
 C       -0.327431067     4.128433011    -0.044056858
 C       -1.707059492     4.343310158     0.001925588
 C       -2.558036205     3.230419826     0.046850518
 C       -2.041340075     1.937762130     0.045749335
 C       -2.296347929     5.678421782     0.004806421
 C       -1.594088972     6.823577772    -0.035510501
 C       -2.181536650     8.159357373    -0.032703888
 C       -1.329579728     9.270005209    -0.077859305
 C       -1.844430818    10.564849856    -0.077072926
 C       -3.226025609    10.778596974    -0.026454104
 C       -4.080101151     9.669485987     0.018830261
 C       -3.562291033     8.375721280     0.013540486
Si       -3.945416384    12.477900285    -0.023719645
 C       -4.957628003    12.720915039    -1.531417696
 C       -5.138291628    11.794878609    -2.482699680
 C       -5.947101023    11.990894716    -3.686137207
 C       -6.055278968    10.937998681    -4.606476912
 C       -6.807415609    11.068626138    -5.761939621
 C       -7.443889696    12.292115903    -6.066872103
 C       -7.333661111    13.350650978    -5.144105970
 C       -6.614914321    13.185367961    -3.966825125
 N       -8.204201590    12.415670387    -7.240028378
 C       -7.828223535    11.582214661    -8.395124763
 C       -8.676206752    13.761376946    -7.597345632
 C       -6.382056603    11.760920281    -8.888096427
 C       -6.187107981    12.960664787    -9.830830666
 N       -6.557175502    12.721403637   -11.237147608
 C       -5.943519040    11.645751123   -11.898946508
 C       -4.627366988    11.266591592   -11.553784620
 C       -4.010472187    10.207604015   -12.198627039
 C       -4.649699489     9.518686955   -13.239827192
 C       -5.939716017     9.915100575   -13.600828154
 C       -6.581466983    10.962671329   -12.952172226
 C       -7.973608565    12.975299628   -11.538332973
 C       -3.950223307     8.407270915   -13.885501712
 C       -4.455710743     7.675801656   -14.887516556
Si       -3.590909127     6.282642154   -15.704033910
 C       -1.928134723     6.040888646   -14.941914229
 C       -0.980187077     7.069285343   -15.016897509
 C        0.282683503     6.911498488   -14.449351927
 C        0.626849977     5.726763228   -13.790927518
 C       -0.323536529     4.700987441   -13.715292056
 C       -1.586573031     4.854889684   -14.283369506
 C        1.936324036     5.517049598   -13.182096024
 C        2.934225678     6.417185471   -13.183786470
 C        4.243345497     6.205854499   -12.574384223
 C        4.587401238     5.021400270   -11.918269423
 C        5.851316281     4.862142613   -11.349581227
 C        6.800430830     5.885364796   -11.427391796
 C        6.458392725     7.074797409   -12.085428880
 C        5.195765721     7.231517019   -12.650274330
Si        8.481203997     5.705705698   -10.685333070
 C        8.721394626     3.986239408    -9.992895774
 C        9.762559099     6.018291967   -12.009766699
 C        8.660826506     6.959011225    -9.310655956
 C       -4.640593713     4.748069795   -15.517206328
 C       -3.374852528     6.675518400   -17.518053174
 C       -5.032169153    12.676735417     1.483134155
 C       -2.599732613    13.774228572    -0.000436488
 C       -0.618634706    -0.874508572    -1.531338498
 C       -0.615064184    -0.877098886     1.531525964
 H        1.281147394     2.730257727    -0.082360305
 H        0.356555932     4.974652394    -0.080208804
 H       -3.636230729     3.375591561     0.082907498
 H       -2.754097213     1.109023175     0.081380207
 H       -3.389512034     5.695820871     0.043477055
 H       -0.500822070     6.805065775    -0.073768960
 H       -0.251660160     9.123857754    -0.115013385
 H       -1.130776243    11.392235101    -0.117177164
 H       -5.168867623     9.776280468     0.059277753
 H       -4.246215812     7.529594589     0.048337570
 H       -5.422503908    13.715377869    -1.605496046
 H       -4.678400947    10.796325829    -2.432010059
 H       -5.547774319     9.992706625    -4.405465976
 H       -6.899757307    10.219281337    -6.433025565
 H       -7.813696885    14.304875500    -5.331698140
 H       -6.560841157    14.015620757    -3.261162605
 H       -9.234382690    13.731021811    -8.547285827
 H       -7.864698909    14.502055221    -7.690249540
 H       -9.386005956    14.110282461    -6.823289195
 H       -8.339349527    13.834995915   -10.953320306
 H       -8.628955121    12.111008852   -11.340835513
 H       -8.069458298    13.254189925   -12.604979335
 H       -4.089557681    11.800841345   -10.775413148
 H       -3.002580963     9.915214705   -11.898488807
 H       -6.460410338     9.397124876   -14.407465896
 H       -7.583519619    11.234070483   -13.266074358
 H       -2.952455939     8.221303915   -13.460690290
 H       -5.458653918     7.878124451   -15.293021909
 H       -1.192502427     8.018721756   -15.518883504
 H        1.003491345     7.723860934   -14.523237656
 H       -0.076219431     3.770794706   -13.207160363
 H       -2.286512339     4.019984890   -14.191509772
 H        2.066898212     4.542309169   -12.702577293
 H        2.805161608     7.391964334   -13.663174878
 H        3.867129474     4.208502020   -11.844261372
 H        6.061536756     3.912938517   -10.849188599
 H        7.159704317     7.909062634   -12.177171791
 H        4.947986549     8.162416167   -13.157087322
 H       -7.995799978    10.516197537    -8.105819582
 H       -8.547869829    11.774107393    -9.220641105
 H       -5.701334791    11.868706717    -8.018220670
 H       -6.053027801    10.829865750    -9.394284910
 H       -6.751719777    13.843284580    -9.459152586
 H       -5.114629077    13.273945241    -9.818840266
 H        2.266629155    -1.030800513     0.010785398
 H        2.274172082     0.518833865     0.887149027
 H        2.274917513     0.500124906    -0.897377945
 H        9.735459603     3.864777505    -9.571645689
 H        8.593948647     3.214908473   -10.773340917
 H        8.000754919     3.769622659    -9.184413900
 H        9.656773162     5.301761502   -12.844644282
 H        9.670535342     7.033787964   -12.433512758
 H       10.786841445     5.915190224   -11.610344880
 H        7.905406537     6.796655963    -8.520382685
 H        9.656690576     6.897942874    -8.837721371
 H        8.530250099     7.990411276    -9.683383487
 H       -4.811774560     4.504127643   -14.452908679
 H       -5.631522055     4.880683515   -15.986919875
 H       -4.163792504     3.872327129   -15.991887279
 H       -2.783045874     7.597031707   -17.664571022
 H       -2.848707560     5.857379632   -18.042266553
 H       -4.347865808     6.822634085   -18.018602245
 H       -5.860331613    11.945285561     1.483237705
 H       -4.455776946    12.524712280     2.413457959
 H       -5.480278806    13.684856251     1.527893317
 H       -1.960148182    13.706478105    -0.899214036
 H       -3.026413843    14.792936445     0.022257938
 H       -1.950613645    13.667113792     0.886452095
 H       -0.274061768    -0.364576800    -2.449417523
 H       -0.257184923    -1.916964532    -1.573391633
 H       -1.722196283    -0.901872757    -1.564690379
 H       -0.268731851    -0.367677260     2.449279938
 H       -1.718389890    -0.906586506     1.567437007
 H       -0.251987682    -1.919111412     1.571726935

