139   

Si        0.000000000     0.000000000     0.000000000
 C        1.869532501     0.000000000     0.000000000
 C       -0.641358012     1.731020851     0.000000000
 C        0.124978271     2.781982314     0.514492106
 C       -0.366450345     4.087088572     0.510986144
 C       -1.636253802     4.371161316     0.001086827
 C       -2.404637921     3.316373920    -0.509111101
 C       -1.915686112     2.012515813    -0.509120867
 C       -2.191808174     5.720264917    -0.023360470
 C       -1.560433674     6.816263890     0.430828170
 C       -2.116975356     8.165105857     0.405906157
 C       -1.348184041     9.220870454     0.913736118
 C       -1.837701889    10.524605764     0.910844426
 C       -3.114179600    10.801515629     0.406895524
 C       -3.883976261     9.749108145    -0.099902645
 C       -3.387975738     8.446076026    -0.102980683
Si       -3.774031574    12.526623388     0.397866333
 C       -5.603967059    12.425353878     0.374235198
 C       -6.396281639    12.927154603    -0.581520307
 C       -7.857065064    12.831443944    -0.574616567
 C       -8.577464129    13.397754854    -1.634333174
 C       -9.960830149    13.334840769    -1.675837057
 C      -10.680223596    12.632652055    -0.689299348
 C       -9.955592842    12.052783804     0.371581214
 C       -8.573375091    12.176830459     0.431629708
 N      -12.085261973    12.562567645    -0.722140258
 C      -12.775981409    12.869031634    -1.985427764
 C      -12.703676936    11.446462329     0.014567890
 C      -12.538491605    11.831044277    -3.096140586
 C      -13.303751811    12.157993347    -4.391620205
 N      -12.980472836    13.452039210    -5.035873376
 C      -11.611906102    13.809983468    -4.989287397
 C      -10.672107615    12.886235780    -5.492482932
 C       -9.320790243    13.186675895    -5.470733577
 C       -8.861723345    14.415596664    -4.971872816
 C       -9.799175142    15.339167669    -4.504272949
 C      -11.160862076    15.056536035    -4.528215922
 C      -13.947260817    14.515789571    -4.717652124
 C       -7.422147126    14.684646588    -4.970951940
 C       -6.880032113    15.822357838    -4.518588126
Si       -5.091665135    16.217273343    -4.490979639
 C       -4.658945212    16.505823839    -2.718184373
 C       -5.568011469    16.159919707    -1.712615191
 C       -5.256377597    16.371307907    -0.370811468
 C       -4.025142702    16.920915916    -0.003783149
 C       -3.113897822    17.262544429    -1.012279714
 C       -3.425809639    17.059729944    -2.354758802
 C       -3.661876676    17.157426971     1.389264287
 C       -4.453855387    16.870056916     2.436561318
 C       -4.103520218    17.101140043     3.833539575
 C       -2.881818690    17.656507554     4.223327298
 C       -2.589564329    17.859499689     5.571565197
 C       -3.509477896    17.498280051     6.561819243
 C       -4.732827782    16.937895755     6.173496265
 C       -5.025943960    16.744758113     4.825891737
Si       -3.123768990    17.766521343     8.347556813
 C       -1.279813598    17.644785259     8.630472587
 C       -3.727087627    19.468422172     8.828025954
 C       -3.982010175    16.472510732     9.388671713
 C       -4.060478009    14.802487966    -5.136161680
 C       -4.794657862    17.759170290    -5.497042493
 C       -3.254804896    13.433986936     1.943502723
 C       -3.103514276    13.395491356    -1.110107496
 C       -0.603644576    -0.899281743    -1.524139917
 C       -0.630695051    -0.859326715     1.534953116
 H        1.124915435     2.622796471     0.927388418
 H        0.251982166     4.887550782     0.913397116
 H       -3.396421700     3.515383836    -0.911015571
 H       -2.560787945     1.231931749    -0.921475494
 H       -3.195956590     5.793517638    -0.451176539
 H       -0.556256696     6.743676134     0.858845410
 H       -0.356258126     9.022793161     1.314836028
 H       -1.193188353    11.308439380     1.318156718
 H       -4.888773317     9.909037115    -0.505444525
 H       -4.004929165     7.644669080    -0.504913753
 H       -6.025944371    11.903511066     1.247733856
 H       -6.000903510    13.453336070    -1.462269563
 H       -8.048150137    13.909023897    -2.443371434
 H      -10.480857746    13.819410633    -2.498747030
 H      -10.468771881    11.516786666     1.162737177
 H       -8.041858286    11.735603881     1.276224960
 H      -13.790999125    11.423342810    -0.162328415
 H      -12.559697159    11.608048845     1.098915539
 H      -12.286610426    10.462903134    -0.256570430
 H      -14.961558217    14.166313231    -4.978779254
 H      -13.743888852    15.395742464    -5.354640235
 H      -13.947667900    14.832852529    -3.663489401
 H      -11.014694557    11.937716024    -5.898700291
 H       -8.605361581    12.456506722    -5.850599538
 H       -9.469150011    16.304546013    -4.115964878
 H      -11.859586849    15.801975836    -4.161175527
 H       -6.824137004    13.857965039    -5.375756344
 H       -7.511857502    16.636336021    -4.124998832
 H       -6.548381357    15.721772353    -1.934095450
 H       -5.984236023    16.092257875     0.391448151
 H       -2.150531411    17.692951994    -0.746282426
 H       -2.678613918    17.348652775    -3.097929688
 H       -2.672684218    17.598045209     1.539134954
 H       -5.444777537    16.429087663     2.281404595
 H       -2.146262223    17.939749094     3.472628387
 H       -1.619661613    18.302244878     5.814388254
 H       -5.489413929    16.635494604     6.902870443
 H       -5.983167520    16.308764829     4.543583128
 H      -13.864047764    12.961453936    -1.768510197
 H      -12.447285674    13.880448720    -2.322775711
 H      -11.450284792    11.754651012    -3.303123929
 H      -12.836549605    10.825788861    -2.743813639
 H      -13.085739338    11.366115515    -5.149225612
 H      -14.398543927    12.109087071    -4.205723841
 H        2.268048305    -1.028737001    -0.054003539
 H        2.279447469     0.464535496     0.913885285
 H        2.269524144     0.556698884    -0.866774486
 H       -1.032615874    17.749074092     9.701990585
 H       -0.728526707    18.431829355     8.086924441
 H       -0.887495435    16.668326558     8.292961792
 H       -3.236794402    20.253786522     8.224986664
 H       -4.816553457    19.567604197     8.672976757
 H       -3.519577235    19.684289383     9.890781840
 H       -3.709950746    15.452209120     9.062572519
 H       -3.701850180    16.566240328    10.453013175
 H       -5.080881731    16.560146204     9.328121222
 H       -4.222025182    13.881325994    -4.545299034
 H       -4.302528698    14.572987538    -6.188992583
 H       -2.981891248    15.036805550    -5.087979842
 H       -5.363561117    18.618789582    -5.098263142
 H       -3.727368459    18.042452819    -5.500215510
 H       -5.104167655    17.618024308    -6.548488637
 H       -3.607624913    12.923386268     2.856829478
 H       -2.157310182    13.526761811     2.013861171
 H       -3.669735372    14.460849835     1.957251120
 H       -3.423972913    12.899181604    -2.042938099
 H       -3.452837274    14.446434949    -1.153690429
 H       -1.999954957    13.416303737    -1.106797903
 H       -0.309835306    -0.364498157    -2.445581192
 H       -0.179735502    -1.917483239    -1.581495921
 H       -1.703071360    -0.998224487    -1.533127920
 H       -0.284615454    -0.348639882     2.451702196
 H       -1.735029891    -0.872420710     1.563477177
 H       -0.282222733    -1.905780100     1.583114282

