139   

Si        0.000000000     0.000000000     0.000000000
 C        1.868377858     0.000000000     0.000000000
 C       -0.645179903     1.728312316     0.000000000
 C        0.210877457     2.830660757    -0.074800569
 C       -0.301956448     4.128122451    -0.073119293
 C       -1.678194261     4.351016025     0.012843089
 C       -2.535247769     3.244515697     0.085505720
 C       -2.027305280     1.948829908     0.072418323
 C       -2.262058699     5.687728308     0.018267601
 C       -1.560493951     6.831327595    -0.056974917
 C       -2.156150961     8.163220793    -0.050645643
 C       -1.316896047     9.281831394    -0.134421351
 C       -1.844360390    10.570994435    -0.131559604
 C       -3.225722923    10.773702793    -0.022972008
 C       -4.064132791     9.657464563     0.067129499
 C       -3.535157016     8.368041163     0.049205768
Si       -3.933011835    12.477343497    -0.018337359
 C       -4.260093024    13.071142552    -1.717107625
 C       -4.033648400    12.396385641    -2.852206321
 C       -4.316936846    12.926292370    -4.186684057
 C       -4.043023905    12.138262393    -5.312771660
 C       -4.296460580    12.602381539    -6.593832033
 C       -4.796894436    13.904088325    -6.803905850
 C       -5.075038979    14.695873819    -5.668988252
 C       -4.859006885    14.198664522    -4.391949626
 N       -5.064194534    14.404866435    -8.087185350
 C       -4.503959729    13.706941167    -9.259617428
 C       -5.052635490    15.871964005    -8.226544402
 C       -5.439892996    13.887324629   -10.473528048
 C       -5.303287995    12.717199613   -11.468480168
 N       -6.305702543    11.639160797   -11.307429588
 C       -6.305819814    11.076322293    -9.993922004
 C       -5.189236935    10.299867376    -9.634081348
 C       -5.124193025     9.723970229    -8.374836115
 C       -6.180578920     9.867411967    -7.462254155
 C       -7.294713719    10.622367409    -7.835455440
 C       -7.362993252    11.224255877    -9.087681229
 C       -7.633173620    12.028012450   -11.817828130
 C       -6.060082082     9.238454223    -6.145293999
 C       -6.996309205     9.302204558    -5.189499880
Si       -6.826045350     8.507187402    -3.545995820
 C       -5.189588630     7.656580872    -3.501970560
 C       -5.071140054     6.265497934    -3.548914125
 C       -3.814404554     5.660329884    -3.513292112
 C       -2.651736186     6.433004489    -3.460185905
 C       -2.771927979     7.828913637    -3.421660432
 C       -4.024514662     8.433485870    -3.436015039
 C       -1.317130181     5.846253757    -3.421511125
 C       -1.058801552     4.528031144    -3.451704191
 C        0.279563473     3.948426783    -3.412645266
 C        1.435569321     4.731700193    -3.338750407
 C        2.695979540     4.138523294    -3.303446979
 C        2.828946319     2.745780464    -3.356201015
 C        1.674102924     1.959866484    -3.436741387
 C        0.414775633     2.555484502    -3.463820720
Si        4.513602816     1.993850858    -3.307277776
 C        5.280799259     2.388824263    -1.648367446
 C        4.409973524     0.138088194    -3.510259588
 C        5.547189997     2.713263935    -4.687017950
 C       -6.904975790     9.838599082    -2.241544886
 C       -8.221126983     7.290998760    -3.296823557
 C       -5.552595061    12.484331146     0.918594517
 C       -2.736652789    13.655552607     0.804369452
 C       -0.612399123    -0.861299556    -1.543423038
 C       -0.624333635    -0.885426423     1.522777989
 H        1.296918409     2.720298918    -0.147060818
 H        0.385732609     4.969021862    -0.144331187
 H       -3.610750947     3.398159726     0.147898105
 H       -2.743887480     1.125127349     0.124898800
 H       -3.354461764     5.708836690     0.082101266
 H       -0.469688913     6.813876623    -0.128254383
 H       -0.240186028     9.144137772    -0.207653381
 H       -1.141096593    11.404282167    -0.210872034
 H       -5.150316356     9.752410771     0.156091637
 H       -4.211271509     7.516472744     0.107899050
 H       -4.685955602    14.087459332    -1.739457801
 H       -3.603057893    11.385037195    -2.863947238
 H       -3.637305333    11.132758963    -5.184818915
 H       -4.104163691    11.941222535    -7.436808679
 H       -5.486027767    15.693612750    -5.779259737
 H       -5.106332456    14.827660719    -3.535817985
 H       -5.070065563    16.169602492    -9.286262233
 H       -4.171172982    16.339793578    -7.756413125
 H       -5.967086324    16.284299523    -7.761349060
 H       -7.546553998    12.228451404   -12.899754498
 H       -8.069655270    12.914996114   -11.333673178
 H       -8.331318405    11.180683703   -11.701009958
 H       -4.385629679    10.150723841   -10.351725841
 H       -4.248969189     9.134452595    -8.099483492
 H       -8.120576289    10.759027932    -7.136704250
 H       -8.230019851    11.827452332    -9.340001121
 H       -5.112317388     8.695037659    -6.013545310
 H       -7.936556467     9.852694255    -5.339199716
 H       -5.943921675     5.610481381    -3.603927572
 H       -3.746901717     4.574372636    -3.531828849
 H       -1.878065699     8.447854341    -3.365797244
 H       -4.058811642     9.527387434    -3.386759174
 H       -0.501188689     6.572644670    -3.362261309
 H       -1.873068568     3.799460059    -3.501579866
 H        1.357531321     5.816783874    -3.303876907
 H        3.562087300     4.802451962    -3.238412313
 H        1.718120917     0.868524865    -3.485299326
 H       -0.474277068     1.929259946    -3.519856687
 H       -3.480495482    14.066468550    -9.498500008
 H       -4.418334536    12.616659441    -9.033927357
 H       -6.487736904    13.963240095   -10.115766776
 H       -5.228931337    14.841853359   -10.984254792
 H       -5.378105015    13.095322863   -12.512030116
 H       -4.295994039    12.249441741   -11.390212821
 H        2.271995868    -1.026936812    -0.027250737
 H        2.273059165     0.492284098     0.902107404
 H        2.263871367     0.538210834    -0.880261822
 H        6.300537488     1.973752952    -1.568490746
 H        4.683139319     1.967765026    -0.819544192
 H        5.350447529     3.478658874    -1.484405965
 H        3.812513358    -0.327712909    -2.706058705
 H        3.947363780    -0.136887045    -4.474936013
 H        5.413907976    -0.321605438    -3.483616912
 H        5.649163695     3.808524373    -4.590867293
 H        6.564110341     2.283292528    -4.694378605
 H        5.092906437     2.510409294    -5.673975655
 H       -6.138110094    10.618509676    -2.419371141
 H       -7.886056357    10.345091312    -2.241439300
 H       -6.739478131     9.425440362    -1.231631894
 H       -8.250370760     6.537160949    -4.103890825
 H       -8.118713441     6.752581436    -2.338201640
 H       -9.201756526     7.798722478    -3.288820711
 H       -6.325999890    11.892060458     0.397597785
 H       -5.429126915    12.060704402     1.931079349
 H       -5.945220592    13.509863757     1.032525901
 H       -1.805982558    13.763680347     0.219668181
 H       -3.175118929    14.662844892     0.914065370
 H       -2.459058331    13.300876607     1.813042629
 H       -0.249912120    -0.352572764    -2.455030804
 H       -0.265377518    -1.908134719    -1.583914466
 H       -1.715488198    -0.873077584    -1.587708814
 H       -0.286912142    -0.378326608     2.445062131
 H       -1.727547311    -0.917887112     1.550646055
 H       -0.258908187    -1.926240436     1.562468763

