139   

Si        0.000000000     0.000000000     0.000000000
 C        1.868656644     0.000000000     0.000000000
 C       -0.666551066     1.721292733     0.000000000
 C        0.173998647     2.838068062    -0.001528525
 C       -0.358704776     4.127641196    -0.001488504
 C       -1.741184994     4.328730128    -0.001907422
 C       -2.582779314     3.207800049    -0.000493146
 C       -2.054217545     1.920193361     0.001292518
 C       -2.345803942     5.656744997    -0.001884542
 C       -1.660368557     6.812686555    -0.001468164
 C       -2.273351215     8.137202339    -0.001448603
 C       -1.444833874     9.266214494    -0.000989885
 C       -1.987523584    10.549939293    -0.000954103
 C       -3.374054185    10.732913584     0.003956827
 C       -4.205210460     9.605444117     0.003787393
 C       -3.659512388     8.323605769    -0.001189927
Si       -4.139047157    12.411416380     0.004211257
 C       -5.043235872    12.664516869    -1.570632083
 C       -5.119495419    11.754793181    -2.550782667
 C       -5.840532928    11.953309364    -3.809646254
 C       -5.840188569    10.914415602    -4.754412206
 C       -6.505801626    11.048736679    -5.961044180
 C       -7.232396146    12.223741379    -6.241854785
 C       -7.234900245    13.263736917    -5.301599316
 C       -6.527804809    13.130462197    -4.110495831
 N       -7.893458013    12.300510456    -7.497309987
 C       -8.932433693    11.263661769    -7.692672499
 C       -8.358049631    13.641499351    -7.893927956
 C      -10.047461334    11.266969034    -6.631134547
 C       -9.782324871    10.230783388    -5.520019235
 N      -10.457909946    10.543966025    -4.249625241
 C      -11.858516873    10.637058907    -4.272170749
 C      -12.602557530     9.816478922    -5.148610487
 C      -13.984491897     9.897340797    -5.181774974
 C      -14.683990555    10.753125390    -4.318451573
 C      -13.947776940    11.540769875    -3.429093892
 C      -12.560726173    11.484797381    -3.393443688
 C       -9.728940829    11.532463410    -3.438477995
 C      -16.144745743    10.797982978    -4.397376700
 C      -16.917754606    11.574225955    -3.626374791
Si      -18.745893817    11.654088658    -3.699526670
 C      -19.428959404    11.165244004    -2.056322464
 C      -18.619340133    10.541973044    -1.099571562
 C      -19.143892683    10.176624826     0.138027672
 C      -20.488632174    10.418557430     0.446552136
 C      -21.295499850    11.036965781    -0.513349775
 C      -20.773510470    11.405636430    -1.752334120
 C      -20.991881501    10.017606528     1.756473845
 C      -22.256188438    10.193504694     2.176639166
 C      -22.759876933     9.792762822     3.486347907
 C      -21.953897256     9.174190000     4.447243718
 C      -22.476390919     8.807786888     5.686235568
 C      -23.821158834     9.050443783     5.992300371
 C      -24.629840032     9.668225270     5.032201904
 C      -24.104420971    10.034462222     3.794684600
Si      -24.483805681     8.553529113     7.641994795
 C      -23.547661013     9.481025281     8.967305960
 C      -26.304637622     8.954115092     7.775612682
 C      -24.241006496     6.712588049     7.855813720
 C      -19.234785241    13.415553496    -4.087770503
 C      -19.434284611    10.498849962    -4.995224666
 C       -5.340947347    12.539347284     1.428320596
 C       -2.837507309    13.741822838     0.158538087
 C       -0.614723360    -0.877276957    -1.531776012
 C       -0.615709605    -0.878193063     1.530784462
 H        1.263319065     2.743227636    -0.002329665
 H        0.317565294     4.980696179    -0.001361349
 H       -3.662987548     3.342783383     0.000114392
 H       -2.760237964     1.084801502     0.003718060
 H       -3.440210255     5.658988743    -0.001537566
 H       -0.566615060     6.812956996    -0.000802475
 H       -0.363314218     9.143528705    -0.002022076
 H       -1.291525090    11.393239525    -0.003873317
 H       -5.296897040     9.687723432     0.007387460
 H       -4.326142050     7.462910669    -0.002248887
 H       -5.531600350    13.646636782    -1.659588064
 H       -4.634326206    10.769232707    -2.483701398
 H       -5.295432992     9.992984238    -4.542267016
 H       -6.461352959    10.254166375    -6.703168773
 H       -7.783873472    14.181399486    -5.490390161
 H       -6.526812083    13.958726482    -3.400901292
 H       -8.656906826    13.610850018    -8.956708802
 H       -7.520824700    14.357555517    -7.817753320
 H       -9.207452515    14.022142904    -7.305673371
 H       -8.639137789    11.356561629    -3.514255229
 H       -9.999951494    11.402157210    -2.375486680
 H       -9.921251777    12.575128317    -3.737455921
 H      -12.094466607     9.117782460    -5.806737176
 H      -14.536711276     9.270967645    -5.883062888
 H      -14.466085251    12.214845403    -2.744934987
 H      -12.028882425    12.114190341    -2.687017220
 H      -16.556381300    10.120934686    -5.157851714
 H      -16.476221293    12.245654417    -2.872354103
 H      -17.562700928    10.323753508    -1.288003601
 H      -18.498446259     9.695207412     0.870614592
 H      -22.343842190    11.235790667    -0.298767913
 H      -21.452627092    11.886023171    -2.461896932
 H      -20.249360982     9.544526324     2.406047168
 H      -22.998466310    10.666115046     1.526623227
 H      -20.905609300     8.973711798     4.232633815
 H      -21.796841409     8.328595427     6.396826453
 H      -25.686280454     9.882299907     5.215331034
 H      -24.750150118    10.514111478     3.061375120
 H       -9.369392060    11.409400016    -8.706211599
 H       -8.423565494    10.274267000    -7.726950006
 H      -10.148120927    12.275691116    -6.186700243
 H      -11.027639049    11.065536184    -7.101945944
 H      -10.101227306     9.216511752    -5.849963119
 H       -8.689322020    10.145863042    -5.314956998
 H        2.266085975    -1.030886906     0.009772286
 H        2.274717580     0.517947513     0.887221786
 H        2.274237479     0.500958409    -0.897105436
 H      -23.909943778     9.215726977     9.976027329
 H      -23.663216187    10.573697167     8.848069567
 H      -22.466508322     9.258627839     8.931351220
 H      -26.491270605    10.036956869     7.663557054
 H      -26.892228108     8.429191262     7.001441467
 H      -26.708054375     8.650022200     8.758097529
 H      -23.174011498     6.434238724     7.795843312
 H      -24.621820941     6.366974004     8.832839616
 H      -24.773961935     6.145817754     7.070803543
 H      -18.889803716    14.111065894    -3.301360622
 H      -18.792596256    13.750139073    -5.043505961
 H      -20.330085557    13.524267777    -4.170460887
 H      -19.154592740     9.449896093    -4.786366602
 H      -20.537578024    10.543191366    -5.027122778
 H      -19.060718810    10.753498978    -6.002743091
 H       -6.154685802    11.797076744     1.340808675
 H       -4.832913343    12.360709453     2.393660129
 H       -5.807268884    13.538998796     1.476832073
 H       -2.141248869    13.726608614    -0.699899441
 H       -3.292827931    14.747769034     0.193462555
 H       -2.240667382    13.616563673     1.079663383
 H       -0.267907566    -0.368891631    -2.449795747
 H       -0.252298984    -1.919582527    -1.571288952
 H       -1.718081657    -0.905934654    -1.567798014
 H       -0.275041702    -0.366417460     2.449291697
 H       -1.719079972    -0.912081116     1.563213874
 H       -0.248521979    -1.918708261     1.572724158

