139   

Si        0.000000000     0.000000000     0.000000000
 C        1.869310554     0.000000000     0.000000000
 C       -0.657332594     1.724312926     0.000000000
 C        0.192236058     2.834304929     0.000738837
 C       -0.329918307     4.127706490     0.000721949
 C       -1.710828961     4.341206331    -0.002822239
 C       -2.561253180     3.227142116    -0.004197819
 C       -2.043211661     1.935077101    -0.002082907
 C       -2.299785525     5.675819227    -0.002976880
 C       -1.590487581     6.816932971     0.000208406
 C       -2.167737235     8.156201028     0.000090867
 C       -3.545978021     8.384904403    -0.003429429
 C       -4.051548773     9.685126021    -0.003393515
 C       -3.183542943    10.779768691     0.015730821
 C       -1.800432190    10.554664696     0.022137583
 C       -1.300210866     9.256505684     0.009585278
Si       -3.803468903    12.516864387     0.016598223
 C       -2.655363683    13.432759243     1.113656610
 C       -1.891735492    14.477595321     0.769639029
 C       -0.992594342    15.166648196     1.698382322
 C       -0.234413133    16.252690315     1.236896577
 C        0.628749310    16.933828687     2.080029538
 C        0.810128111    16.503982317     3.411572289
 C        0.062163452    15.406587437     3.872171895
 C       -0.834654113    14.764608047     3.027136607
 N        1.695762738    17.217844191     4.246455141
 C        2.975470512    17.640616352     3.640211211
 C        1.834178790    16.724807770     5.625658686
 C        3.679970128    16.556405389     2.801786610
 C        5.176405196    16.395802615     3.125745776
 N        5.497100486    15.406430469     4.180122191
 C        4.832858459    14.160336310     3.999375856
 C        5.147031596    13.429344935     2.837142441
 C        4.537871844    12.208797179     2.597878283
 C        3.606027870    11.676554693     3.502559996
 C        3.313247149    12.397688477     4.662031467
 C        3.928092362    13.618733550     4.922108332
 C        5.452512865    15.966575062     5.540019945
 C        2.992370717    10.380991039     3.198697493
 C        2.093118113     9.776304771     3.985055925
Si        1.298889157     8.159312614     3.648703708
 C       -0.519917966     8.448034606     3.554859075
 C       -1.032088717     9.750438600     3.584242138
 C       -2.405353346     9.967661159     3.513350749
 C       -3.294752710     8.891044915     3.410425791
 C       -2.779709681     7.591890616     3.378572894
 C       -1.404981120     7.370181831     3.447956763
 C       -4.723532913     9.175285786     3.339396053
 C       -5.686688655     8.244197255     3.237609346
 C       -7.113403224     8.540527242     3.167282470
 C       -7.613651599     9.844987696     3.200266946
 C       -8.985689329    10.084760249     3.130464986
 C       -9.889452712     9.022601076     3.030519222
 C       -9.390634907     7.713568023     2.995572259
 C       -8.020003627     7.477547071     3.059339055
Si      -11.709110958     9.317468734     2.936921659
 C      -12.120193654    11.059057417     3.478119348
 C      -12.257717451     9.063250237     1.168672421
 C      -12.591291324     8.109909497     4.058948713
 C        1.873112153     7.416994478     2.033387689
 C        1.685591976     6.997673350     5.058202043
 C       -3.808706143    13.177414402    -1.727243163
 C       -5.521154768    12.603482282     0.746211561
 C       -0.616573947    -0.877181420    -1.530941342
 C       -0.615900368    -0.876354673     1.532029358
 H        1.280582773     2.730730323     0.001337820
 H        0.354103506     4.974736161     0.001340250
 H       -3.640091304     3.371304831    -0.007242210
 H       -2.755519395     1.105349463    -0.002908629
 H       -3.392971962     5.697876517    -0.007888506
 H       -0.496098488     6.793541033     0.008816699
 H       -4.240136797     7.546644938    -0.004219628
 H       -5.138571693     9.803504900    -0.006149752
 H       -1.076066008    11.376042895     0.046864185
 H       -0.223525079     9.097983759     0.018762681
 H       -2.635284794    13.033325795     2.141845541
 H       -1.883705083    14.902237422    -0.241523066
 H       -0.336500312    16.580799035     0.202396538
 H        1.173103487    17.797955385     1.710305311
 H        0.178273614    15.037624686     4.886349394
 H       -1.407177277    13.918986332     3.412700998
 H        2.454671945    17.426620498     6.207931989
 H        2.273789622    15.715759057     5.692803306
 H        0.838918587    16.712981740     6.108244988
 H        6.172763880    16.801291308     5.600680230
 H        5.790576911    15.200282597     6.260517141
 H        4.464127694    16.334516835     5.851465399
 H        5.875660289    13.826302177     2.133533862
 H        4.788611769    11.655430798     1.692747049
 H        2.594345916    12.004658768     5.382314964
 H        3.687409195    14.148168247     5.838565317
 H        3.338697036     9.949366442     2.250773889
 H        1.768225563    10.236456431     4.932936127
 H       -0.384270577    10.631021061     3.650512499
 H       -2.788117972    10.986345394     3.532834943
 H       -3.450643579     6.739242677     3.292401251
 H       -1.059386914     6.333114843     3.411234869
 H       -4.977827983    10.239531330     3.371081986
 H       -5.434405534     7.180848405     3.202662740
 H       -6.931731687    10.690009192     3.281785565
 H       -9.316592994    11.126447012     3.160979970
 H      -10.049477882     6.844416636     2.917795680
 H       -7.651339897     6.453918313     3.028971498
 H        2.753151343    18.528842241     3.002713394
 H        3.646022019    18.013990571     4.443923812
 H        3.160963709    15.582053661     2.923846061
 H        3.562206423    16.786442232     1.725606033
 H        5.715661353    16.061501453     2.206709779
 H        5.628759216    17.371648904     3.401863231
 H        2.266994913    -1.030546607     0.020204623
 H        2.274648374     0.527148145     0.881900686
 H        2.274003063     0.492075344    -0.902341063
 H      -13.212579415    11.222175560     3.499521966
 H      -11.688266489    11.811419774     2.795005867
 H      -11.734860663    11.265616627     4.492896642
 H      -11.745496612     9.764389545     0.485303886
 H      -12.031502065     8.039899732     0.819823713
 H      -13.344648390     9.222214436     1.057210351
 H      -12.235274019     8.201713627     5.101313067
 H      -13.681037723     8.288752285     4.062373964
 H      -12.427489083     7.064551649     3.744091140
 H        1.660778495     8.090061485     1.183251603
 H        2.959574362     7.220493642     2.043892238
 H        1.362629261     6.456646799     1.836042710
 H        1.306643215     7.389094434     6.019467640
 H        1.224627567     6.006068098     4.900927107
 H        2.774127469     6.846532848     5.168020617
 H       -2.801105916    13.132228113    -2.178872909
 H       -4.484101142    12.590978902    -2.376098311
 H       -4.145094827    14.228597291    -1.760682208
 H       -5.557185175    12.148420958     1.752043139
 H       -5.862548607    13.649699772     0.841796340
 H       -6.254646860    12.072012768     0.113706689
 H       -0.274055819    -0.366205606    -2.449201097
 H       -0.251540804    -1.918398242    -1.572852280
 H       -1.720005642    -0.908244338    -1.563599099
 H       -0.266725068    -0.369147981     2.449676788
 H       -1.719297274    -0.901134253     1.568824453
 H       -0.256839983    -1.919790709     1.570510828

