139   

Si        0.000000000     0.000000000     0.000000000
 C        1.869582426     0.000000000     0.000000000
 C       -0.627241524     1.736507995     0.000000000
 C        0.088281123     2.749319547    -0.648144177
 C       -0.382610456     4.061647282    -0.650021679
 C       -1.581736707     4.391364158    -0.011801836
 C       -2.299389983     3.375148327     0.632197250
 C       -1.830110582     2.063740044     0.637735572
 C       -2.112729193     5.750521103     0.011839682
 C       -1.521886222     6.811448733    -0.563786539
 C       -2.050407398     8.171537251    -0.541804267
 C       -3.249198823     8.504394861     0.095547262
 C       -3.717321034     9.817891954     0.091783621
 C       -2.989670859    10.828797351    -0.544494552
 C       -1.788084311    10.499351959    -1.183648434
 C       -1.327324273     9.185198738    -1.184165554
Si       -3.601335510    12.570046422    -0.554668664
 C       -2.164398118    13.677662909    -0.804045141
 C       -2.006984579    14.532894360    -1.823020494
 C       -0.842552362    15.404237068    -1.989672597
 C       -0.786290847    16.260770187    -3.098206852
 C        0.293974335    17.104382407    -3.300445884
 C        1.348142362    17.154443111    -2.362462154
 C        1.292506252    16.292983144    -1.249105579
 C        0.224705492    15.420855656    -1.086997242
 N        2.441082906    18.012259270    -2.573396230
 C        2.183137841    19.272044789    -3.293269499
 C        3.384495764    18.176378160    -1.453396911
 C        1.220663046    20.209501487    -2.542262482
 C        1.289144241    21.663253499    -3.037412809
 N        2.608985229    22.326051686    -2.923352384
 C        3.376649893    21.966817270    -1.792785890
 C        2.773688448    22.073893083    -0.521290114
 C        3.483602886    21.734130959     0.617376648
 C        4.820914272    21.313712594     0.537954879
 C        5.421397600    21.234490903    -0.719760729
 C        4.718830349    21.562628129    -1.874559940
 C        3.326412499    22.419851383    -4.205062037
 C        5.522897021    20.966770670     1.775071113
 C        6.795936865    20.553606592     1.830644728
Si        7.675272979    20.119202692     3.378372911
 C        6.533700795    20.343416845     4.810189369
 C        6.207285284    21.635363010     5.244324669
 C        5.347428702    21.821181205     6.323140525
 C        4.783952010    20.723949547     6.988719746
 C        5.106583481    19.437345844     6.549522853
 C        5.971195835    19.247714752     5.471399883
 C        3.888275314    20.969947254     8.114257451
 C        3.287706779    20.009449799     8.837229898
 C        2.391861529    20.254215074     9.962943371
 C        2.068223800    21.540595448    10.403390679
 C        1.207195739    21.728350072    11.484014294
 C        0.641817405    20.631391909    12.143228296
 C        0.963162819    19.341530069    11.702531869
 C        1.829610537    19.156705223    10.627898801
Si       -0.498462391    20.879544264    13.574303221
 C       -1.430351707    22.488208972    13.376975762
 C       -1.728960238    19.474960968    13.663306661
 C        0.522666172    20.926540163    15.138320069
 C        8.247675747    18.344738195     3.256425434
 C        9.157181153    21.239212417     3.575957460
 C       -4.861209601    12.749783822    -1.920902159
 C       -4.380305432    12.991795293     1.090689896
 C       -0.633038726    -0.854013977    -1.536674921
 C       -0.606411962    -0.903070125     1.520497612
 H        1.031555356     2.553607901    -1.165781956
 H        0.194840464     4.831807652    -1.158537227
 H       -3.235868704     3.609484393     1.135120726
 H       -2.433199687     1.314075740     1.157155794
 H       -3.059919150     5.862518671     0.547418260
 H       -0.574644705     6.698413784    -1.099765921
 H       -3.830040194     7.735585766     0.601474696
 H       -4.661837411    10.017409609     0.604926575
 H       -1.179130501    11.251651693    -1.696805182
 H       -0.392638240     8.946739433    -1.688609110
 H       -1.400524532    13.588456570    -0.014323470
 H       -2.750092496    14.646246530    -2.623232454
 H       -1.600840957    16.258011312    -3.823068474
 H        0.320310513    17.728750868    -4.188316334
 H        2.086465567    16.291026160    -0.508521879
 H        0.216521700    14.751561093    -0.224787848
 H        4.148996757    18.934381549    -1.701707663
 H        3.916355866    17.222302299    -1.288111159
 H        2.902356230    18.489551908    -0.512296069
 H        2.669577691    22.907299638    -4.947276393
 H        3.658578695    21.453193768    -4.614289977
 H        4.206699368    23.077170030    -4.084872703
 H        1.749042546    22.429891373    -0.440631771
 H        2.998932611    21.808311046     1.592420555
 H        6.460316326    20.914114983    -0.807930413
 H        5.219452465    21.486040977    -2.834478987
 H        4.896286433    21.078620101     2.672467824
 H        7.405344977    20.447989322     0.920485199
 H        6.612528456    22.529481902     4.760746937
 H        5.110080565    22.831848108     6.650415109
 H        4.682757705    18.567432865     7.048100293
 H        6.185652133    18.217333440     5.174306997
 H        3.726312392    22.026397457     8.347609573
 H        3.450327657    18.952818247     8.604096523
 H        2.490244963    22.410995789     9.904005980
 H        0.994423784    22.758269400    11.783926299
 H        0.551258335    18.446950616    12.177858627
 H        2.068585347    18.146000933    10.301780044
 H        3.165718700    19.770852385    -3.459804429
 H        1.791404574    19.034088644    -4.306675512
 H        0.182217695    19.835767709    -2.637303216
 H        1.438177248    20.169055949    -1.455114704
 H        0.941081403    21.719140128    -4.091592038
 H        0.574369331    22.283811388    -2.443161909
 H        2.268776800    -1.027456614     0.070451880
 H        2.269074381     0.571053010     0.857786129
 H        2.279618555     0.450829710    -0.920572235
 H       -2.177930327    22.617779662    14.179756106
 H       -1.969752777    22.521832323    12.413010938
 H       -0.754591103    23.360556207    13.411934405
 H       -2.285779867    19.370572765    12.714440410
 H       -1.235039814    18.509152985    13.868507129
 H       -2.469660694    19.643376806    14.465303615
 H        1.262871919    21.746411696    15.111304257
 H       -0.112075608    21.078134602    16.029000584
 H        1.081449695    19.984224216    15.282161077
 H        7.406439710    17.661177440     3.042041755
 H        8.988364630    18.216988018     2.446912096
 H        8.722950270    18.010787198     4.196199558
 H        8.865284902    22.304763126     3.570751570
 H        9.680053164    21.042196280     4.529544958
 H        9.885837158    21.092333505     2.759225267
 H       -4.422554992    12.510130034    -2.906756340
 H       -5.717109473    12.068016979    -1.768927372
 H       -5.258813522    13.778896504    -1.970057876
 H       -3.679025912    12.811641586     1.925527936
 H       -4.674300840    14.056468166     1.129584015
 H       -5.285811596    12.389740150     1.279314834
 H       -0.287706604    -0.341867277    -2.452782435
 H       -0.286166697    -1.900944495    -1.587633398
 H       -1.737559316    -0.865747397    -1.563852382
 H       -0.315849139    -0.370399924     2.444180567
 H       -1.705676296    -1.005000846     1.525313635
 H       -0.180712906    -1.920718667     1.576903919

