139   

Si        0.000000000     0.000000000     0.000000000
 C        1.866468613     0.000000000     0.000000000
 C       -0.618197792     1.738660753     0.000000000
 C        0.119393914     2.768362623     0.593037150
 C       -0.357345473     4.079743095     0.587414043
 C       -1.587603460     4.385665893     0.001955493
 C       -2.330003518     3.351061569    -0.584133341
 C       -1.853972258     2.043498231    -0.584659240
 C       -2.140901266     5.733571087    -0.036856867
 C       -1.564857705     6.837458683     0.468592571
 C       -2.170497601     8.164562586     0.398599071
 C       -3.412495464     8.378179066    -0.210108930
 C       -3.971967931     9.652133888    -0.265860969
 C       -3.288836719    10.750387229     0.269994171
 C       -2.044055689    10.544023525     0.874585960
 C       -1.494176433     9.263995571     0.941418574
Si       -4.077585848    12.414258353     0.168098504
 C       -2.897308380    13.686603732     0.750634733
 C       -3.112612928    14.505385098     1.788509121
 C       -2.161947056    15.520021708     2.246628333
 C       -2.508214526    16.316648300     3.349451404
 C       -1.647360519    17.290629436     3.824389418
 C       -0.388300909    17.482719242     3.216320856
 C       -0.044690324    16.697532339     2.104028139
 C       -0.937204669    15.748314283     1.616475372
 N        0.455366138    18.489258106     3.736745216
 C        0.652147737    18.454963784     5.203300129
 C        1.691746159    18.767429431     2.988463044
 C        0.800172335    17.059237629     5.834559747
 C        2.012085866    16.285345943     5.288181493
 N        2.161928845    14.939768790     5.866056862
 C        1.192650505    13.968320654     5.552543068
 C        0.412572980    14.073647763     4.383966091
 C       -0.540675705    13.115467350     4.078526718
 C       -0.716825045    11.984750547     4.886342250
 C        0.081177727    11.862278548     6.027777965
 C        1.023631656    12.826625301     6.360694350
 C        2.643571516    14.965814507     7.258028983
 C       -1.737551621    10.999243788     4.522577671
 C       -1.978017257     9.889669082     5.232036225
Si       -3.220882617     8.591690412     4.877917543
 C       -2.245593127     7.036423375     4.665447484
 C       -0.929554970     7.108950534     4.193641043
 C       -0.172475865     5.951153469     4.024489078
 C       -0.715496025     4.696599621     4.315280549
 C       -2.035717353     4.625758307     4.778056148
 C       -2.795704348     5.781224543     4.946397273
 C        0.038572083     3.458099599     4.153735044
 C        1.308583748     3.386821917     3.719763521
 C        2.058791933     2.145685048     3.559766282
 C        1.510175321     0.893531709     3.850329295
 C        2.259856787    -0.270168876     3.684291655
 C        3.577042697    -0.208009457     3.216155510
 C        4.127932556     1.045120574     2.920497522
 C        3.377209599     2.206069342     3.089943994
Si        4.563695517    -1.753901961     2.998835676
 C        3.430609066    -3.148599460     2.481115740
 C        5.860469172    -1.505521650     1.675366885
 C        5.384385118    -2.167781587     4.624730678
 C       -4.343529264     8.448953832     6.367402767
 C       -4.246751343     8.929195827     3.365098262
 C       -4.515850105    12.795032604    -1.606704524
 C       -5.617196804    12.390105489     1.226806652
 C       -0.598217754    -0.887809813    -1.535524103
 C       -0.656512848    -0.875105814     1.514518194
 H        1.084511047     2.586011981     1.078354621
 H        0.233124372     4.863623796     1.058619244
 H       -3.291803650     3.569241462    -1.043767390
 H       -2.476833229     1.280025604    -1.057547391
 H       -3.115440622     5.800864478    -0.533521289
 H       -0.599950410     6.788564215     0.978686329
 H       -3.959407295     7.542495659    -0.643556749
 H       -4.948982395     9.750188464    -0.746873752
 H       -1.468351328    11.366823206     1.311007952
 H       -0.528871285     9.120916453     1.425178856
 H       -1.968009531    13.740559525     0.161753638
 H       -4.031201451    14.473663486     2.390412938
 H       -3.469797883    16.167784360     3.842365394
 H       -1.942801638    17.915936361     4.663097657
 H        0.913216597    16.820769342     1.608784168
 H       -0.656047228    15.161592425     0.740303110
 H        2.156414285    19.685235209     3.389314274
 H        1.439749309    18.977831010     1.933010348
 H        2.435802817    17.956435160     3.020802916
 H        3.331305029    15.813291954     7.410339866
 H        3.223255800    14.044886457     7.454755836
 H        1.831027006    15.040378991     7.999045744
 H        0.534252351    14.921950186     3.714279345
 H       -1.155793369    13.246305834     3.183787413
 H       -0.029690295    10.992165020     6.677089765
 H        1.622289090    12.686419354     7.254269713
 H       -2.292685019    11.255155785     3.610399124
 H       -1.397661762     9.669828713     6.144776486
 H       -0.453054005     8.064829950     3.949422031
 H        0.850400882     6.033557442     3.662713213
 H       -2.478644647     3.657413780     5.002119772
 H       -3.821798500     5.665638226     5.304227001
 H       -0.515566007     2.549484337     4.408560965
 H        1.862247538     4.293896607     3.462264914
 H        0.487826884     0.819740588     4.219029048
 H        1.775588562    -1.219698583     3.929234600
 H        5.150615037     1.155064046     2.550169950
 H        3.823832368     3.170354189     2.854743430
 H        1.530800340    19.083241253     5.465841281
 H       -0.234129991    18.964782780     5.654029670
 H        0.881170600    17.164096586     6.932454804
 H       -0.120928225    16.461539670     5.666834454
 H        1.938866454    16.181360238     4.179982283
 H        2.952148346    16.850299476     5.477486589
 H        2.271414551    -1.024342061    -0.065477335
 H        2.267983434     0.456822880     0.925866395
 H        2.269058559     0.574255456    -0.852927914
 H        4.001531060    -4.068897699     2.265531139
 H        2.865385786    -2.885380500     1.568084498
 H        2.695685056    -3.392578790     3.267887964
 H        5.404950404    -1.176100913     0.723980928
 H        6.605726659    -0.745987212     1.969611354
 H        6.408497979    -2.443017261     1.473311796
 H        4.638611874    -2.315635165     5.426409142
 H        5.982540075    -3.092857292     4.550336129
 H        6.061170933    -1.357836113     4.951634008
 H       -3.778938598     8.166142196     7.273341891
 H       -4.847710183     9.409209929     6.577192488
 H       -5.127947649     7.688641552     6.211225420
 H       -3.616559919     9.003428882     2.455965721
 H       -4.978323189     8.122184119     3.183110480
 H       -4.805907394     9.877091585     3.456158413
 H       -3.623476570    12.767474074    -2.257911802
 H       -5.241450597    12.067673719    -2.010698743
 H       -4.963769553    13.800536803    -1.701572821
 H       -5.376197102    12.173488348     2.284073429
 H       -6.145516117    13.359085193     1.193332093
 H       -6.325749209    11.614504406     0.886098553
 H       -0.300360464    -0.345340255    -2.450685100
 H       -0.172692109    -1.904528382    -1.598597595
 H       -1.696945227    -0.987629386    -1.549832669
 H       -0.302265509    -0.385573756     2.439757681
 H       -1.760357913    -0.866641855     1.536151800
 H       -0.326194052    -1.927620766     1.543895614

