139   

Si        0.000000000     0.000000000     0.000000000
 C        1.869443074     0.000000000     0.000000000
 C       -0.636966094     1.732785160     0.000000000
 C        0.095150014     2.763587402     0.599047260
 C       -0.388366453     4.071518495     0.597577822
 C       -1.616072305     4.378688963     0.004542514
 C       -2.350087568     3.344466284    -0.590856180
 C       -1.868607298     2.037647349    -0.592884678
 C       -2.162258635     5.731550619    -0.021479701
 C       -1.561704169     6.810490751     0.508964044
 C       -2.111139258     8.162242704     0.480996614
 C       -1.379860091     9.200178248     1.072963646
 C       -1.865019948    10.506410287     1.070287759
 C       -3.098502083    10.800982513     0.480708555
 C       -3.832389679     9.765876467    -0.111143992
 C       -3.340940641     8.462008200    -0.112557571
Si       -3.779152860    12.517533962     0.454614224
 C       -5.593446019    12.344900196     0.649680894
 C       -6.514767119    12.760016267    -0.227783528
 C       -7.958644017    12.601674344    -0.031845040
 C       -8.828212841    13.078327732    -1.024829577
 C      -10.201254417    12.953613893    -0.888729876
 C      -10.736500335    12.315345340     0.242742597
 C       -9.878517905    11.832459795     1.236107727
 C       -8.502000174    11.986916585     1.097909493
 N      -12.165677007    12.229843427     0.303366518
 C      -12.681676092    11.153910785    -0.572499097
 C      -12.722409934    12.175702591     1.666618365
 C      -12.375011450     9.725136206    -0.079425987
 C      -12.325130640     8.708451340    -1.235953578
 N      -10.963934867     8.335301254    -1.668703977
 C      -10.208061417     9.334464313    -2.319426582
 C      -10.818118623    10.096160903    -3.338160621
 C      -10.103278231    11.084030679    -3.995842876
 C       -8.745468742    11.300745523    -3.721090735
 C       -8.132708382    10.515316512    -2.740492514
 C       -8.843698510     9.541875277    -2.050319884
 C      -10.253116985     7.530560917    -0.659814916
 C       -8.035503302    12.357731360    -4.443938470
 C       -6.741233618    12.648878601    -4.259701906
Si       -5.798608663    13.956601656    -5.131608506
 C       -5.199952095    15.095009063    -3.805543045
 C       -6.041119572    15.384550660    -2.724621845
 C       -5.620476038    16.239054282    -1.707763701
 C       -4.352067077    16.826000151    -1.749190548
 C       -3.514419850    16.539496617    -2.835057940
 C       -3.933725349    15.687278957    -3.854858417
 C       -3.872341151    17.725978302    -0.705938396
 C       -4.581539682    18.075464417     0.380729173
 C       -4.109048894    18.974586463     1.428148179
 C       -2.845202483    19.570083800     1.398138962
 C       -2.435044520    20.423739626     2.421849071
 C       -3.285202399    20.707396537     3.495913959
 C       -4.552512439    20.111652367     3.528060764
 C       -4.956363856    19.253344870     2.508665178
Si       -2.748011679    21.836857891     4.854452137
 C       -1.471557959    23.046473177     4.220102772
 C       -4.217099651    22.793525310     5.503686206
 C       -2.010955763    20.799724834     6.222852208
 C       -4.368648755    13.157137982    -6.024746363
 C       -6.858714798    14.915881918    -6.328558317
 C       -3.125960696    13.562658266     1.853460515
 C       -3.318990729    13.279780297    -1.181187671
 C       -0.602796737    -0.903262066    -1.521973240
 C       -0.631693701    -0.857152095     1.535710681
 H        1.061452229     2.585610487     1.079089367
 H        0.202673177     4.856029078     1.067012262
 H       -3.308529580     3.561511298    -1.058878332
 H       -2.485465474     1.273858101    -1.074294115
 H       -3.131816054     5.822973916    -0.520049487
 H       -0.592023229     6.720423078     1.007189070
 H       -0.420222129     8.987365837     1.540037344
 H       -1.251405397    11.276065039     1.545908309
 H       -4.805498904     9.940105613    -0.583641326
 H       -3.927836912     7.673671371    -0.580664344
 H       -5.885228931    11.850002316     1.590412824
 H       -6.254766029    13.259817893    -1.171693939
 H       -8.422897743    13.548912738    -1.922843008
 H      -10.872826838    13.341054578    -1.653262605
 H      -10.276347220    11.338901645     2.117278469
 H       -7.847126604    11.610291306     1.884215153
 H      -13.817033841    12.301449411     1.600274465
 H      -12.328271190    13.026942237     2.249357709
 H      -12.512356456    11.247217828     2.217282783
 H      -10.924526135     6.744443886    -0.275467999
 H       -9.877160750     8.114625862     0.196019765
 H       -9.401682537     7.017490612    -1.143433854
 H      -11.854374176     9.911943318    -3.607666265
 H      -10.603103712    11.685436503    -4.755538954
 H       -7.078751909    10.668948224    -2.496649531
 H       -8.332804228     8.970283445    -1.281129468
 H       -8.669957052    12.894971601    -5.160353503
 H       -6.129173907    12.083365786    -3.535975438
 H       -7.048587987    14.961282311    -2.642658028
 H       -6.291879069    16.443482677    -0.874361383
 H       -2.524603468    16.988680716    -2.887375887
 H       -3.238508933    15.501615840    -4.677500570
 H       -2.863588638    18.116999847    -0.864406312
 H       -5.591060273    17.681723206     0.537943416
 H       -2.166852874    19.370743818     0.570426206
 H       -1.434683946    20.858288707     2.343327384
 H       -5.259432907    20.296398565     4.341732246
 H       -5.944472862    18.797925125     2.553088723
 H      -13.778643641    11.302156693    -0.673593547
 H      -12.245807253    11.311783407    -1.587364461
 H      -11.408415756     9.721741362     0.463345260
 H      -13.130516367     9.414519310     0.663133920
 H      -12.844890044     7.768693556    -0.936738688
 H      -12.888753542     9.085445156    -2.118016271
 H        2.268158739    -1.027821048    -0.068309378
 H        2.279714733     0.452427049     0.919720362
 H        2.269260451     0.568828017    -0.859058297
 H       -1.193584392    23.778581724     4.999224059
 H       -1.854798003    23.614490760     3.353067460
 H       -0.545539199    22.536118318     3.902445994
 H       -4.713358848    23.360248410     4.694978134
 H       -4.972827198    22.127975928     5.956100013
 H       -3.910510243    23.519354231     6.277832284
 H       -1.141550803    20.220003871     5.863929212
 H       -1.669679511    21.427392665     7.064754247
 H       -2.746124051    20.077231525     6.620569841
 H       -3.689925708    12.638605545    -5.323018308
 H       -4.724955268    12.404856153    -6.752441424
 H       -3.771435067    13.898286409    -6.583913768
 H       -7.713217167    15.397475595    -5.819317175
 H       -6.280325462    15.716668885    -6.823940555
 H       -7.264575211    14.262650105    -7.121474216
 H       -3.331722347    13.105978264     2.837513096
 H       -2.035097133    13.713729356     1.773937581
 H       -3.596089729    14.564879170     1.847927147
 H       -3.664041524    12.663012353    -2.030555381
 H       -3.767251701    14.286436805    -1.299540094
 H       -2.225313972    13.394566600    -1.280140717
 H       -0.304781430    -0.373754213    -2.445099688
 H       -0.181198902    -1.922884146    -1.573981373
 H       -1.702397703    -1.000339923    -1.532792092
 H       -0.288031582    -0.344497558     2.452172651
 H       -1.736110730    -0.871934857     1.562417221
 H       -0.281959314    -1.903149375     1.586015728

