139   

Si        0.000000000     0.000000000     0.000000000
 C        1.869129599     0.000000000     0.000000000
 C       -0.656862783     1.725078944     0.000000000
 C        0.183067049     2.829467776    -0.169675119
 C       -0.336849597     4.124030159    -0.166042844
 C       -1.706158030     4.343389213     0.003917014
 C       -2.547235021     3.234750729     0.171454457
 C       -2.031388482     1.941810207     0.168889729
 C       -2.295108482     5.678487109     0.014635814
 C       -1.603664771     6.821094027    -0.134203842
 C       -2.193572540     8.155935907    -0.123345637
 C       -3.564140370     8.372333317     0.046929588
 C       -4.086279329     9.665118993     0.050944927
 C       -3.244447382    10.771066906    -0.106291152
 C       -1.870988153    10.558540265    -0.276282795
 C       -1.354073809     9.265349468    -0.288204543
Si       -3.929372526    12.484658421    -0.101863084
 C       -2.586371136    13.635829540     0.368460878
 C       -2.109343309    14.647383236    -0.369312926
 C       -1.028629413    15.533609502     0.069395234
 C       -0.599813891    16.564347664    -0.776112043
 C        0.420748646    17.426659142    -0.399974558
 C        1.021782394    17.310690806     0.868098295
 C        0.589595680    16.274673661     1.721018569
 C       -0.402991721    15.396267253     1.313584793
 N        2.060360568    18.162245660     1.294460092
 C        2.444152290    19.284592339     0.426061027
 C        2.059595634    18.511998584     2.726408345
 C        1.422772861    20.434987473     0.407874572
 C        1.573405195    21.283754383    -0.868102913
 N        0.340594843    22.008620450    -1.247502491
 C       -0.759824931    21.133753268    -1.487419597
 C       -0.645067622    20.231153425    -2.561901234
 C       -1.679846554    19.354587384    -2.847121598
 C       -2.863288725    19.366274962    -2.093373098
 C       -2.976582238    20.276262049    -1.039873497
 C       -1.942728213    21.156206297    -0.737211848
 C        0.064352463    23.149543372    -0.357121019
 C       -3.929542641    18.420223674    -2.432868248
 C       -5.095778407    18.348696104    -1.778508479
Si       -6.461124207    17.189062472    -2.158084501
 C       -7.971680384    18.156942125    -2.579306937
 C       -7.874883246    19.492802685    -2.981422742
 C       -9.021019910    20.221019603    -3.299133966
 C      -10.285143394    19.629399506    -3.229298030
 C      -10.378399205    18.289144154    -2.830115251
 C       -9.236515515    17.559847823    -2.509166391
 C      -11.511675892    20.351348075    -3.552015843
 C      -11.562631419    21.635065735    -3.946191440
 C      -12.789752762    22.356160414    -4.268699585
 C      -14.053668556    21.763794422    -4.195400383
 C      -15.200816186    22.489972080    -4.512706696
 C      -15.108544412    23.825743171    -4.919340253
 C      -13.843454000    24.421161462    -4.994535516
 C      -12.699793396    23.695288146    -4.670118380
Si      -16.631483087    24.781969060    -5.338162425
 C      -17.890738171    23.652164388    -6.133704131
 C      -17.329491003    25.496395767    -3.758891707
 C      -16.220100607    26.163560849    -6.528561088
 C       -6.035033477    16.083312021    -3.601219714
 C       -6.757407466    16.161634296    -0.625865410
 C       -4.590124052    12.839635332    -1.810888582
 C       -5.300575296    12.643391867     1.157491467
 C       -0.623937733    -0.871444018    -1.530800507
 C       -0.609115747    -0.882263483     1.531433570
 H        1.262469497     2.721622832    -0.306994015
 H        0.339090207     4.966952691    -0.299315534
 H       -3.617228581     3.383492143     0.305084762
 H       -2.736356684     1.116575165     0.303039642
 H       -3.379630085     5.698458783     0.157035735
 H       -0.519089542     6.801845546    -0.276883527
 H       -4.238030719     7.527697218     0.177380272
 H       -5.165915719     9.772078852     0.185743670
 H       -1.167045716    11.388235065    -0.402963713
 H       -0.284030672     9.118724151    -0.424366732
 H       -2.171774901    13.422161840     1.368203982
 H       -2.499880720    14.895366188    -1.364703596
 H       -1.076403311    16.702207484    -1.748136844
 H        0.721053816    18.210807949    -1.090305256
 H        1.046068443    16.143897847     2.697524929
 H       -0.704698011    14.592755051     1.987582024
 H        2.821718555    19.279832244     2.935395242
 H        2.333024772    17.619396188     3.317740976
 H        1.083894645    18.884448139     3.078786079
 H        0.922447514    23.843058338    -0.397142309
 H       -0.112587075    22.875452435     0.694004582
 H       -0.813847388    23.702403179    -0.734795871
 H        0.255720556    20.232545535    -3.171929602
 H       -1.574072600    18.656091802    -3.677221922
 H       -3.884315376    20.301623158    -0.434943694
 H       -2.059893759    21.843412973     0.095513472
 H       -3.681244871    17.772266094    -3.282907112
 H       -5.311069844    19.012733950    -0.924683168
 H       -6.911270603    20.007688335    -3.057561899
 H       -8.920345717    21.260862971    -3.605535796
 H      -11.353783034    17.810131125    -2.769195108
 H       -9.370933994    16.519133749    -2.201698712
 H      -12.428349446    19.762839381    -3.450821330
 H      -10.645946911    22.223711510    -4.047979001
 H      -14.152519454    20.724487039    -3.886836381
 H      -16.160885699    21.972292714    -4.434314291
 H      -13.709603901    25.460506234    -5.306792597
 H      -11.725492826    24.176725414    -4.733256588
 H        3.437533646    19.654947192     0.768797305
 H        2.615870480    18.884234609    -0.600464828
 H        0.394808722    20.017287822     0.464769021
 H        1.529416849    21.062732990     1.308166677
 H        2.392761482    22.025041806    -0.749429534
 H        1.861866443    20.643429979    -1.733224601
 H        2.266900441    -1.029311443     0.052996358
 H        2.272739875     0.554884672     0.865895980
 H        2.276066209     0.463465172    -0.916196660
 H      -18.783580106    24.215173295    -6.458978823
 H      -18.231959037    22.864744371    -5.439270001
 H      -17.471145637    23.151356767    -7.025108706
 H      -17.582267319    24.700959363    -3.034978413
 H      -16.604414797    26.169863669    -3.267375078
 H      -18.248410856    26.077453436    -3.951337414
 H      -15.726795424    25.774951227    -7.437853383
 H      -17.131972371    26.698314955    -6.849014880
 H      -15.543961215    26.908594236    -6.073854230
 H       -5.872290116    16.672545858    -4.522275141
 H       -5.116502447    15.499517029    -3.410407252
 H       -6.849617927    15.367746684    -3.812517680
 H       -7.219097406    16.763187294     0.177873482
 H       -7.423439190    15.305521007    -0.827448209
 H       -5.805621859    15.760857092    -0.228752878
 H       -3.787790099    12.796848869    -2.569408544
 H       -5.358330042    12.101963183    -2.103893932
 H       -5.053061126    13.840988321    -1.862222411
 H       -4.952842866    12.361952979     2.167879413
 H       -5.671909951    13.683069571     1.212891969
 H       -6.159142983    11.996212772     0.908730448
 H       -0.278923529    -0.363328310    -2.449615852
 H       -0.267782245    -1.915686036    -1.573310294
 H       -1.727817600    -0.892897177    -1.561994150
 H       -0.274727105    -0.365007682     2.449222814
 H       -1.711745300    -0.930202445     1.562887533
 H       -0.229308812    -1.918156538     1.576016538

