139   

Si        0.000000000     0.000000000     0.000000000
 C        1.868858305     0.000000000     0.000000000
 C       -0.666153759     1.721224228     0.000000000
 C        0.168497490     2.834526721    -0.132746223
 C       -0.362862833     4.124674274    -0.129385072
 C       -1.738224675     4.329993126     0.004861041
 C       -2.573923294     3.212251854     0.136240378
 C       -2.046774904     1.924062299     0.133272169
 C       -2.341154805     5.658641650     0.014093668
 C       -1.661027761     6.811764610    -0.102551643
 C       -2.272314468     8.137032432    -0.092317949
 C       -1.449394419     9.262564260    -0.222649632
 C       -1.990654027    10.546895706    -0.218030051
 C       -3.369514581    10.734932764    -0.077084094
 C       -4.194656103     9.610609227     0.054273948
 C       -3.651000283     8.327812757     0.044643114
Si       -4.131177757    12.415890777    -0.065290315
 C       -5.270575981    12.587953649    -1.489285901
 C       -5.505846656    11.629258456    -2.395184137
 C       -6.416200927    11.768305865    -3.531957467
 C       -6.572241840    10.684727500    -4.408327978
 C       -7.420660540    10.761074925    -5.500526167
 C       -8.194695120    11.920260555    -5.725812922
 C       -8.040270790    13.008084759    -4.843980782
 C       -7.147092487    12.932510863    -3.783324383
 N       -9.053947966    11.993383157    -6.834930805
 C       -9.624604153    10.731871471    -7.337260486
 C      -10.018461767    13.106978360    -6.860970334
 C      -10.551663352    10.041546876    -6.321155822
 C      -11.399693236     8.924650085    -6.950744809
 N      -12.288040146     9.338037972    -8.060776381
 C      -12.879330658    10.613911442    -7.924223163
 C      -13.583522724    10.894210944    -6.733751261
 C      -14.180754216    12.129737612    -6.551727453
 C      -14.127845981    13.114064988    -7.551202412
 C      -13.450626223    12.823234940    -8.737203430
 C      -12.839391079    11.589566251    -8.933131793
 C      -11.761256343     8.993836303    -9.391174249
 C      -14.776725184    14.404353808    -7.306611676
 C      -14.790166396    15.414533832    -8.185704642
Si      -15.588266786    17.043100021    -7.922223409
 C      -16.867274100    17.276808920    -9.230735820
 C      -17.414260937    16.171196881    -9.890229187
 C      -18.381201924    16.344676287   -10.879741980
 C      -18.827921092    17.622998782   -11.225625364
 C      -18.281462018    18.728343685   -10.559551462
 C      -17.313143903    18.559152275    -9.572973841
 C      -19.837456794    17.851975409   -12.254283296
 C      -20.438106121    16.882283364   -12.964609029
 C      -21.447681821    17.109935262   -13.993426270
 C      -21.893652472    18.387174871   -14.343309112
 C      -22.861071879    18.558295896   -15.333346362
 C      -23.410253130    17.453003179   -15.990748128
 C      -22.965426518    16.171113011   -15.641367007
 C      -21.994462835    16.003666379   -14.657499185
Si      -24.691683739    17.661387697   -17.303588057
 C      -25.502833647    19.339815810   -17.164316017
 C      -23.859675782    17.500546999   -18.968904733
 C      -26.000109125    16.339475105   -17.114504934
 C      -16.418171704    17.144498379    -6.253245669
 C      -14.270425398    18.359971193    -8.062586108
 C       -5.093516897    12.634889967     1.521540127
 C       -2.822818599    13.743792061    -0.193288006
 C       -0.619666693    -0.874946615    -1.530853885
 C       -0.608481091    -0.882179019     1.531874566
 H        1.252123224     2.736780812    -0.241235234
 H        0.308756506     4.975115779    -0.233162456
 H       -3.648402705     3.350431331     0.242168458
 H       -2.748111958     1.091537958     0.239075910
 H       -3.429591574     5.664273478     0.127103062
 H       -0.573133244     6.809027376    -0.215317363
 H       -0.373755745     9.136645097    -0.330452506
 H       -1.299682869    11.387146599    -0.328060151
 H       -5.280088787     9.696547848     0.167978035
 H       -4.313028711     7.469925789     0.147437344
 H       -5.765442574    13.568686235    -1.553317731
 H       -5.018217479    10.643603139    -2.353660573
 H       -6.005310734     9.768183600    -4.237591819
 H       -7.485613942     9.916763582    -6.180086773
 H       -8.606466399    13.922783209    -4.987207780
 H       -7.032170202    13.796579977    -3.127399190
 H      -10.700064228    13.006794100    -7.724538880
 H       -9.468274634    14.056350765    -6.991517646
 H      -10.640244840    13.171785756    -5.952954209
 H      -11.525039516     7.915042863    -9.413832875
 H      -10.860344086     9.554472036    -9.685172535
 H      -12.547212592     9.159520245   -10.150232168
 H      -13.659374375    10.131288200    -5.962327623
 H      -14.711480173    12.333999971    -5.621063559
 H      -13.397849131    13.569668718    -9.531732681
 H      -12.320656480    11.402468118    -9.868271396
 H      -15.259795465    14.466065381    -6.322623237
 H      -14.296048875    15.322415288    -9.166793628
 H      -17.105510559    15.145944925    -9.659503162
 H      -18.788803954    15.468907878   -11.381889314
 H      -18.615888164    19.732242689   -10.814286754
 H      -16.921899476    19.458071011    -9.088991725
 H      -20.089261781    18.903160876   -12.422360475
 H      -20.186370422    15.830819506   -12.796046128
 H      -21.485953040    19.264077134   -13.843343663
 H      -23.168129761    19.582113071   -15.564208302
 H      -23.358303154    15.270214500   -16.120816028
 H      -21.660243680    14.999811999   -14.401326628
 H      -10.178310144    10.964132613    -8.276394494
 H       -8.794103021    10.054927946    -7.637050816
 H       -9.952108968     9.624932818    -5.487814082
 H      -11.211146680    10.797838468    -5.848983246
 H      -10.740630157     8.099558448    -7.298443670
 H      -12.059798851     8.481271029    -6.165897125
 H        2.266185915    -1.029689772     0.050087553
 H        2.273398081     0.552247637     0.867144860
 H        2.275682987     0.465909793    -0.915063055
 H      -26.320414853    19.449409638   -17.899090756
 H      -24.784417122    20.158125840   -17.347209724
 H      -25.937782948    19.493047100   -16.160148610
 H      -23.078519935    18.270526667   -19.103370777
 H      -23.372764850    16.515422292   -19.082501619
 H      -24.584701848    17.612498246   -19.794027752
 H      -26.457625146    16.372216249   -16.108925248
 H      -26.810961378    16.470385281   -17.852798223
 H      -25.583385522    15.327114035   -17.256574071
 H      -17.197583759    16.368126807    -6.144052685
 H      -15.692090453    17.011341226    -5.431791539
 H      -16.909526737    18.123593341    -6.108612388
 H      -13.825563907    18.378317930    -9.074019156
 H      -14.677757993    19.365900339    -7.859940078
 H      -13.450907202    18.181846380    -7.342926435
 H       -5.902151461    11.887260678     1.609609955
 H       -4.438586945    12.520102274     2.403968073
 H       -5.558304098    13.634799645     1.577486508
 H       -2.260231366    13.663768125    -1.141389327
 H       -3.272012273    14.752560833    -0.162790654
 H       -2.097811234    13.678518271     0.637019745
 H       -0.274070597    -0.367053820    -2.449553574
 H       -0.260301957    -1.918208190    -1.571437643
 H       -1.723297949    -0.899834891    -1.563937005
 H       -0.274874056    -0.363876879     2.449393486
 H       -1.711103673    -0.930751480     1.563124819
 H       -0.227861650    -1.917708496     1.577167463

