139   

Si        0.000000000     0.000000000     0.000000000
 C        1.869257938     0.000000000     0.000000000
 C       -0.614424350     1.741067634     0.000000000
 C       -0.065973420     2.672448436    -0.889896293
 C       -0.517418137     3.991126599    -0.904016771
 C       -1.531808135     4.408397544    -0.036933229
 C       -2.082152100     3.474121462     0.849515328
 C       -1.630004799     2.156406274     0.868678989
 C       -2.035716930     5.777862820    -0.016519727
 C       -1.592222744     6.767966876    -0.809586146
 C       -2.096529132     8.137182197    -0.788686796
 C       -1.543709349     9.072966837    -1.671902445
 C       -1.993404454    10.391805220    -1.687829129
 C       -3.005285861    10.806434075    -0.815423245
 C       -3.559663436     9.872585593     0.069087409
 C       -3.110682702     8.553437983     0.079493108
Si       -3.627830183    12.542692159    -0.805630316
 C       -5.409271855    12.564940074    -1.235947587
 C       -6.139523944    11.476998747    -1.514004613
 C       -7.562555409    11.502445757    -1.857034650
 C       -8.211423227    10.286839985    -2.127168843
 C       -9.555255632    10.253147671    -2.456456463
 C      -10.291285431    11.452860608    -2.562127567
 C       -9.645894694    12.669881203    -2.290079552
 C       -8.304159424    12.683208980    -1.923486842
 N      -11.659614386    11.365139748    -2.900692436
 C      -11.971921866    10.569673439    -4.110000586
 C      -12.446787753    12.604335903    -2.797820013
 C      -10.955120927    10.668417745    -5.258671220
 C      -10.760007117    12.107657380    -5.767773485
 N       -9.544704903    12.272126871    -6.585517198
 C       -9.468892366    11.527775448    -7.776382105
 C      -10.643194872    11.239767527    -8.505234138
 C      -10.578982708    10.507355303    -9.679310721
 C       -9.350266689    10.078695719   -10.201702224
 C       -8.185545962    10.393640958    -9.496422675
 C       -8.233172725    11.111655205    -8.308798299
 C       -8.318489603    12.350989812    -5.771642442
 C       -9.341634556     9.307882440   -11.445490428
 C       -8.233575687     8.844972286   -12.039891548
Si       -8.214966385     7.880366230   -13.595304878
 C       -9.943607350     7.653444653   -14.200929133
 C      -10.634381525     6.455601568   -13.983394969
 C      -11.938777650     6.297841855   -14.445977444
 C      -12.589142639     7.335764678   -15.125520869
 C      -11.899998899     8.534028399   -15.334418557
 C      -10.593046692     8.693279352   -14.876346512
 C      -13.955659446     7.121971486   -15.590626653
 C      -14.688512828     8.030667893   -16.256228031
 C      -16.055081250     7.816125246   -16.721049885
 C      -16.743156465     6.617705686   -16.511657155
 C      -18.048861370     6.455298872   -16.973093357
 C      -18.699708285     7.492951813   -17.649184393
 C      -18.012544225     8.694891724   -17.859832823
 C      -16.705911367     8.851937889   -17.403942170
Si      -20.428688896     7.277502788   -18.260049087
 C      -21.365390357     6.117935472   -17.131536391
 C      -21.306972457     8.927548683   -18.296343687
 C      -20.357435773     6.561446834   -19.984444701
 C       -7.215500351     8.805994680   -14.875070212
 C       -7.412554760     6.225064815   -13.263888601
 C       -3.404557979    13.260170508     0.904660644
 C       -2.711438223    13.590849766    -2.051491737
 C       -0.635780381    -0.847537496    -1.539367060
 C       -0.609545782    -0.913481318     1.512604143
 H        0.727479725     2.405134230    -1.593609225
 H       -0.071521771     4.697403674    -1.602179150
 H       -2.872731746     3.777456563     1.533583062
 H       -2.096197998     1.473292628     1.583937189
 H       -2.830287533     5.961317438     0.712981994
 H       -0.797710157     6.584130519    -1.538782863
 H       -0.753725527     8.769765975    -2.356511127
 H       -1.526507324    11.075993901    -2.401527818
 H       -4.353050503    10.140253504     0.774488615
 H       -3.558012119     7.845549925     0.775143078
 H       -5.854136667    13.571642473    -1.250237003
 H       -5.715892421    10.461506374    -1.510109145
 H       -7.651715539     9.351941639    -2.066333466
 H      -10.051591665     9.300974346    -2.629313838
 H      -10.181615405    13.611232365    -2.358725948
 H       -7.827401912    13.638706595    -1.701004600
 H      -13.519796556    12.352588455    -2.871926132
 H      -12.211802779    13.359289999    -3.564024859
 H      -12.297503538    13.052359932    -1.798732237
 H       -8.517906401    12.889646018    -4.827987146
 H       -7.557590425    12.932928222    -6.321681589
 H       -7.899458805    11.365552796    -5.508290833
 H      -11.608452619    11.585329113    -8.147586564
 H      -11.501671496    10.274065796   -10.212676102
 H       -7.216208613    10.073082189    -9.880647144
 H       -7.303701783    11.334693567    -7.794355652
 H      -10.348226552     9.140047663   -11.856279533
 H       -7.236683283     9.025217393   -11.609836508
 H      -10.180795012     5.612397983   -13.454860038
 H      -12.456847150     5.356495417   -14.273189317
 H      -12.382524921     9.356583658   -15.859095199
 H      -10.106092182     9.654228816   -15.068371024
 H      -14.368835383     6.136219400   -15.357207417
 H      -14.275331228     9.016295623   -16.490556254
 H      -16.261169957     5.796263175   -15.984322998
 H      -18.533690110     5.494176428   -16.780687108
 H      -18.469796281     9.540344516   -18.381269192
 H      -16.187800638     9.792997093   -17.579763881
 H      -12.043630981     9.505028007    -3.777990439
 H      -12.984673685    10.844934407    -4.476575877
 H       -9.977518571    10.255722919    -4.935071582
 H      -11.277090839    10.014954844    -6.093523392
 H      -11.640424747    12.435157071    -6.364025676
 H      -10.691012389    12.820368198    -4.914206691
 H        2.269553760    -1.028156890     0.048205072
 H        2.268614645     0.553672300     0.869316483
 H        2.278121760     0.473295069    -0.909801715
 H      -22.423672392     6.033024130   -17.436206884
 H      -21.348591613     6.477213602   -16.086590922
 H      -20.936764897     5.100613780   -17.141547365
 H      -21.284495631     9.414898418   -17.304818395
 H      -20.845409997     9.621549437   -19.020350050
 H      -22.367054175     8.808964468   -18.583198793
 H      -19.844892159     5.582686544   -19.992922162
 H      -21.369130839     6.413000546   -20.400931106
 H      -19.806115871     7.226337575   -20.673583564
 H       -7.602837927     9.828473640   -15.032295774
 H       -6.158147795     8.897609056   -14.569795024
 H       -7.238066572     8.286820558   -15.850007554
 H       -7.915653675     5.687211106   -12.440414861
 H       -7.444873345     5.578316307   -14.158666355
 H       -6.352390673     6.344032058   -12.977512041
 H       -3.967155095    12.684003822     1.661371522
 H       -2.340976862    13.249934010     1.204844459
 H       -3.756114925    14.305658670     0.954400588
 H       -2.854360477    13.212363903    -3.079910807
 H       -3.066989255    14.636665978    -2.034261999
 H       -1.626449201    13.607192238    -1.845253529
 H       -0.292203658    -0.333795159    -2.454846162
 H       -0.290931541    -1.895059520    -1.593743678
 H       -1.740632668    -0.858014556    -1.563685885
 H       -0.297367111    -0.405736540     2.442878252
 H       -1.710975041    -0.992038016     1.525321538
 H       -0.206141766    -1.941499003     1.546236887

