139   

Si        0.000000000     0.000000000     0.000000000
 C        1.869427938     0.000000000     0.000000000
 C       -0.639938823     1.731287707     0.000000000
 C        0.096440971     2.767617058    -0.583794388
 C       -0.391590666     4.073735775    -0.581057134
 C       -1.625830431     4.374243536     0.001999013
 C       -2.364207277     3.334563010     0.582032231
 C       -1.880247580     2.028842583     0.578646414
 C       -2.175893325     5.724813531     0.028408789
 C       -1.569954960     6.804656504    -0.493336720
 C       -2.118819485     8.155681296    -0.467636302
 C       -1.379008626     9.193264167    -1.050768797
 C       -1.863845175    10.497227453    -1.049276600
 C       -3.106696231    10.792331656    -0.470697226
 C       -3.844308417     9.760039011     0.113244368
 C       -3.350121714     8.455398857     0.119740547
Si       -3.718171618    12.530901012    -0.486545637
 C       -3.731437896    13.165600247    -2.207574548
 C       -3.353980641    12.470957201    -3.288913277
 C       -3.372077557    12.996480244    -4.655799532
 C       -2.950103819    12.164381865    -5.704612099
 C       -2.948150461    12.613215139    -7.014248684
 C       -3.319639152    13.939200670    -7.310529829
 C       -3.734562637    14.776928734    -6.265899678
 C       -3.775605199    14.297395015    -4.959992934
 N       -3.298346949    14.342866151    -8.673379526
 C       -1.979483203    14.207142976    -9.322334722
 C       -3.947724342    15.629763573    -8.975347744
 C       -0.904984832    15.162580395    -8.765789286
 C        0.511527476    14.734935797    -9.194569711
 N        1.278996709    14.014031832    -8.157457669
 C        0.743294046    12.768572700    -7.753633675
 C        0.382997708    11.835495424    -8.748102125
 C       -0.144999061    10.604693817    -8.393314150
 C       -0.255982331    10.226056240    -7.047812496
 C        0.140104863    11.137605028    -6.065204646
 C        0.633322223    12.391531143    -6.404866036
 C        1.734084097    14.907876526    -7.077934270
 C       -0.821021265     8.914223207    -6.724478253
 C       -0.970452650     8.457452530    -5.474932651
Si       -1.667630620     6.831072727    -4.993707684
 C       -3.136663080     7.230161021    -3.950017604
 C       -3.689995398     8.513807061    -4.013561443
 C       -4.798224696     8.846086118    -3.238783434
 C       -5.384251939     7.900217534    -2.393320627
 C       -4.835008677     6.612748977    -2.337700968
 C       -3.724375982     6.278019422    -3.110190997
 C       -6.545984310     8.217657091    -1.569139680
 C       -7.145803167     9.420267846    -1.550247799
 C       -8.306268290     9.763356061    -0.737142619
 C       -8.921861522     8.849868240     0.123056988
 C      -10.030255457     9.222555746     0.882062704
 C      -10.549143972    10.519612314     0.796357900
 C       -9.933623884    11.436173815    -0.064422140
 C       -8.825554658    11.061795092    -0.820435652
Si      -12.017300468    10.998471243     1.807534430
 C      -13.250036179     9.593149922     1.825374892
 C      -11.440275110    11.359391116     3.548221051
 C      -12.837416961    12.517451196     1.090114268
 C       -2.212486549     5.826105862    -6.466812961
 C       -0.390215971     5.894999797    -4.005407427
 C       -5.458660554    12.617520133     0.186480748
 C       -2.578010419    13.590070685     0.546446424
 C       -0.630416980    -0.856680738    -1.536704101
 C       -0.603094817    -0.904045599     1.521370277
 H        1.068778900     2.594837718    -1.053007735
 H        0.202216637     4.862733336    -1.039753797
 H       -3.328059488     3.546732569     1.041029644
 H       -2.501030055     1.259831730     1.046271987
 H       -3.151399255     5.814357849     0.514832059
 H       -0.594843537     6.716140150    -0.981128661
 H       -0.418440200     8.977409990    -1.514115487
 H       -1.240881726    11.268656568    -1.512654532
 H       -4.823195795     9.929409327     0.572250536
 H       -3.944454400     7.667264296     0.578401832
 H       -4.085506496    14.204125083    -2.292874827
 H       -3.005679813    11.427962791    -3.233804270
 H       -2.625974909    11.142054354    -5.494713786
 H       -2.647634697    11.941117979    -7.817434468
 H       -4.027152067    15.803684322    -6.459751724
 H       -4.115745925    14.962481161    -4.166370133
 H       -3.989096709    15.760410088   -10.070444780
 H       -3.445132854    16.506586930    -8.539497779
 H       -4.991388707    15.600541815    -8.613936329
 H        2.218202374    15.795619216    -7.519453279
 H        2.503561664    14.388948880    -6.478265752
 H        0.928904064    15.249160519    -6.407335182
 H        0.518890339    12.082354711    -9.797838594
 H       -0.453285962     9.911674446    -9.176473356
 H        0.060620343    10.872247052    -5.009195061
 H        0.905260437    13.079214730    -5.609667211
 H       -1.115105094     8.335808797    -7.608927152
 H       -0.656842706     9.063747005    -4.607857258
 H       -3.282055515     9.295070653    -4.664163040
 H       -5.203314008     9.856214229    -3.299155483
 H       -5.277737180     5.862206253    -1.686597324
 H       -3.333940764     5.260560832    -3.022246329
 H       -6.912711417     7.395445805    -0.950085530
 H       -6.772014274    10.236659983    -2.178651418
 H       -8.538661882     7.834437382     0.205577910
 H      -10.470055203     8.464111056     1.535450365
 H      -10.296802901    12.461560093    -0.174071454
 H       -8.363750232    11.787862898    -1.488530841
 H       -1.648138105    13.148410224    -9.205877060
 H       -2.115749929    14.370191627   -10.413872528
 H       -1.108247846    16.194286241    -9.101382794
 H       -0.976236311    15.193226813    -7.660251871
 H        0.473020006    14.097776925   -10.106205029
 H        1.106050569    15.630172085    -9.488370496
 H        2.268031609    -1.028385144     0.060943186
 H        2.269419175     0.562757443     0.862977890
 H        2.279444157     0.458804028    -0.916626634
 H      -14.162510653     9.867989063     2.383538279
 H      -12.832118430     8.687632618     2.298739482
 H      -13.557394677     9.319715115     0.799460037
 H      -10.951283274    10.478353857     4.000903531
 H      -10.708140882    12.186705628     3.564960626
 H      -12.283659818    11.646114537     4.200559004
 H      -13.119744658    12.359419551     0.033495505
 H      -13.758495176    12.772322505     1.644190219
 H      -12.173587166    13.398735027     1.131699544
 H       -2.984032838     6.357087484    -7.054018297
 H       -1.368214714     5.605503990    -7.143016031
 H       -2.648259378     4.860193924    -6.152999416
 H       -0.010677187     6.498560168    -3.162091979
 H       -0.812499913     4.963492303    -3.585416414
 H        0.475646617     5.615844290    -4.631559630
 H       -6.143047428    11.950367548    -0.371970758
 H       -5.496003677    12.311934318     1.247541419
 H       -5.868834208    13.640296923     0.122270844
 H       -1.548379775    13.583021455     0.146671128
 H       -2.915923869    14.640273882     0.576998050
 H       -2.529799832    13.224122202     1.587968584
 H       -0.284553615    -0.345245151    -2.452869861
 H       -0.281893150    -1.903190767    -1.585962733
 H       -1.734775407    -0.870222220    -1.564878513
 H       -0.311443256    -0.370975561     2.444505563
 H       -1.702188335    -1.006813213     1.528609419
 H       -0.176218680    -1.921312689     1.576588921

