139   

Si        0.000000000     0.000000000     0.000000000
 C        1.868291528     0.000000000     0.000000000
 C       -0.622280887     1.737957896     0.000000000
 C        0.086520304     2.742727589    -0.667627944
 C       -0.379232507     4.056679408    -0.670571626
 C       -1.571458775     4.393521752    -0.023208245
 C       -2.282684264     3.385701182     0.640416170
 C       -1.812866308     2.074579476     0.655776062
 C       -2.094662804     5.755481159    -0.001832356
 C       -1.497860024     6.806172365    -0.589724272
 C       -2.006851122     8.173505684    -0.578097541
 C       -3.195372589     8.537054147     0.061248973
 C       -3.638657180     9.859221469     0.042954065
 C       -2.896096353    10.849672754    -0.609515137
 C       -1.704866744    10.488010067    -1.250141353
 C       -1.268868720     9.165906718    -1.236931094
Si       -3.485367209    12.598428159    -0.631951209
 C       -3.211531769    13.375474174     1.002553986
 C       -2.664602966    12.776251843     2.069399041
 C       -2.460933777    13.430288315     3.362829415
 C       -1.877991622    12.703193903     4.409594817
 C       -1.664877035    13.278570515     5.651660657
 C       -2.053695336    14.608385923     5.909960581
 C       -2.633539644    15.342237500     4.853108993
 C       -2.810022908    14.762300369     3.604208263
 N       -1.848219487    15.213064176     7.160470334
 C       -1.575793240    14.364675547     8.335878001
 C       -2.717202167    16.362222463     7.472632390
 C       -0.595719596    15.063257577     9.299285331
 C        0.840986118    15.147296468     8.744893634
 N        1.651379672    13.915549764     8.830144481
 C        1.382706310    12.969219061     7.802668436
 C        1.741484181    13.338423375     6.491177588
 C        1.510736313    12.469109030     5.439035989
 C        0.952857900    11.199243971     5.661870575
 C        0.627035711    10.828889915     6.967572697
 C        0.847503278    11.695556386     8.034597215
 C        1.753562836    13.365860975    10.190943533
 C        0.731179874    10.321821293     4.510479671
 C        0.207683407     9.091996575     4.592467232
Si       -0.073705178     7.986563061     3.158641790
 C        0.874614060     6.418647666     3.343475030
 C        2.198211831     6.444218431     3.800630170
 C        2.916667200     5.259934413     3.940983883
 C        2.339138842     4.026194101     3.611346831
 C        1.021766943     4.005458012     3.146714333
 C        0.296192844     5.188945119     3.013692987
 C        3.134655195     2.814174401     3.776603879
 C        2.702013278     1.570774490     3.507559133
 C        3.501831818     0.361615912     3.674596611
 C        4.819876675     0.388431696     4.140038004
 C        5.549460105    -0.790700667     4.285235574
 C        4.972273946    -2.028192871     3.978868553
 C        3.649948249    -2.058864977     3.520581938
 C        2.925218321    -0.878722907     3.373377402
Si        5.945496420    -3.584464107     4.174020585
 C        7.040878639    -3.458685754     5.683773968
 C        4.796909390    -5.045795772     4.376791897
 C        6.994941960    -3.816514069     2.645205812
 C       -1.911729176     7.659787056     3.107997924
 C        0.497901006     8.807905021     1.583534378
 C       -2.560928332    13.589273397    -1.919730156
 C       -5.313057196    12.627947197    -1.022682823
 C       -0.639738912    -0.863535003    -1.527268166
 C       -0.601771471    -0.887325939     1.533708713
 H        1.024864564     2.541032869    -1.192638964
 H        0.199661481     4.822578229    -1.184144649
 H       -3.212255164     3.626361202     1.152189478
 H       -2.406808833     1.332534411     1.195800875
 H       -3.044684945     5.874106096     0.526771423
 H       -0.553125046     6.675855873    -1.127922164
 H       -3.791464599     7.785298803     0.575106433
 H       -4.577281011    10.083697221     0.558329601
 H       -1.084091672    11.218423932    -1.776590988
 H       -0.343277842     8.903648630    -1.746404130
 H       -3.545382395    14.423742978     1.049170409
 H       -2.322067559    11.731194627     2.052792703
 H       -1.577578388    11.663911368     4.249393255
 H       -1.188176566    12.680506645     6.427730903
 H       -2.930211830    16.375741600     4.994642551
 H       -3.244880686    15.361785847     2.803646593
 H       -2.625870943    16.651902988     8.531311471
 H       -3.782228127    16.161903049     7.266541583
 H       -2.393437022    17.231591830     6.871475269
 H        2.136347527    14.153094357    10.863044761
 H        2.494856158    12.546583618    10.192163600
 H        0.809193271    12.982082156    10.606339814
 H        2.189981724    14.314113539     6.312442975
 H        1.770706452    12.775678526     4.425093702
 H        0.197612128     9.846119848     7.165317941
 H        0.586904985    11.379370075     9.039516668
 H        1.041477056    10.774762408     3.558440370
 H       -0.094436728     8.661343475     5.559748993
 H        2.700281773     7.378512592     4.070031035
 H        3.940455312     5.296589138     4.307857337
 H        0.549652879     3.062107187     2.874932997
 H       -0.728779662     5.107561828     2.636758175
 H        4.150425093     2.982541668     4.146680108
 H        1.684124169     1.403322844     3.143023388
 H        5.291192894     1.337122454     4.391142031
 H        6.577008257    -0.704058317     4.649158475
 H        3.145115883    -2.995512645     3.269703896
 H        1.894751495    -0.926699672     3.024964990
 H       -2.518036765    14.112266313     8.871558300
 H       -1.128739263    13.392940023     8.019556460
 H       -0.945078643    16.090440060     9.518939366
 H       -0.606042924    14.532319422    10.268468315
 H        0.799830001    15.476373300     7.678687066
 H        1.403719590    15.936493440     9.294509736
 H        2.271458099    -1.025471213     0.080534676
 H        2.276501557     0.578872828     0.851491640
 H        2.279506886     0.443127581    -0.923754089
 H        7.582696697    -4.403904825     5.864691305
 H        6.447462194    -3.236922061     6.589455933
 H        7.795481928    -2.659944468     5.576995294
 H        4.101453940    -4.893883333     5.221932577
 H        4.190241063    -5.218192720     3.470730141
 H        5.362843437    -5.973305298     4.575689526
 H        7.685107690    -2.966441854     2.498054064
 H        7.604348513    -4.734850524     2.710991138
 H        6.370449333    -3.893705094     1.737116265
 H       -2.259925565     7.160639804     4.028737353
 H       -2.479036670     8.602841900     2.999864631
 H       -2.176985092     7.014671803     2.251949524
 H        1.548026275     9.140008737     1.656103400
 H        0.431277745     8.109327271     0.729081842
 H       -0.124031896     9.688375775     1.335487662
 H       -1.487262350    13.673245244    -1.673269343
 H       -2.643659308    13.126884206    -2.919131230
 H       -2.960452301    14.616334831    -1.995353852
 H       -5.903074915    12.113189433    -0.243564726
 H       -5.692640754    13.662356940    -1.094554515
 H       -5.522441986    12.127341640    -1.984960884
 H       -0.298389822    -0.358570143    -2.448776354
 H       -0.292734840    -1.910631776    -1.573868231
 H       -1.743887732    -0.876738676    -1.551514377
 H       -0.351309744    -0.325554186     2.451721779
 H       -1.696973459    -1.025198722     1.519031441
 H       -0.147403390    -1.890457241     1.618309255

