139   

Si        0.000000000     0.000000000     0.000000000
 C        1.868903296     0.000000000     0.000000000
 C       -0.666897392     1.720686917     0.000000000
 C        0.171395393     2.837609045    -0.056486839
 C       -0.362484061     4.126719269    -0.054964852
 C       -1.743786625     4.327574552     0.002157765
 C       -2.582999693     3.206127968     0.057905102
 C       -2.053506826     1.918981336     0.056486836
 C       -2.349524466     5.654903971     0.006180195
 C       -1.666568650     6.811311261    -0.043369635
 C       -2.280664027     8.135332845    -0.038924839
 C       -1.454291554     9.264475604    -0.094296777
 C       -1.998193942    10.547771095    -0.092236907
 C       -3.383542751    10.730401900    -0.035596018
 C       -4.212315956     9.602265109     0.020741727
 C       -3.665545343     8.321058239     0.020326534
Si       -4.147458554    12.409984174    -0.030657497
 C       -5.339624517    12.575704995    -1.413501700
 C       -5.612500002    11.608863219    -2.299041155
 C       -6.563263498    11.737072918    -3.404111660
 C       -6.749743530    10.638853563    -4.257037306
 C       -7.636204209    10.702591304    -5.318969652
 C       -8.420630797    11.856916873    -5.519650648
 C       -8.239072177    12.956036946    -4.666022081
 C       -7.299581950    12.899808528    -3.642128920
 N       -9.313221294    11.874247793    -6.620459589
 C      -10.235438509    10.721485671    -6.702891721
 C       -9.994344194    13.154867595    -6.879766956
 C      -11.235381599    10.606688800    -5.536387838
 C      -10.770721891     9.588954924    -4.474394571
 N      -11.379349107     9.776397228    -3.138973734
 C      -10.917502117    10.975381255    -2.506700141
 C       -9.626197117    10.935728620    -1.953720481
 C       -9.108305058    12.057091964    -1.324629996
 C       -9.869901653    13.229439757    -1.202387884
 C      -11.158946014    13.252672367    -1.739078272
 C      -11.686029505    12.138315989    -2.384676628
 C      -12.843120122     9.606691446    -3.148628378
 C       -9.276554414    14.388181565    -0.528415190
 C       -9.911811496    15.554896554    -0.356347931
Si       -9.218080534    17.029562684     0.476153231
 C       -7.501461534    16.675278616     1.050038127
 C       -7.264155772    16.118323483     2.310871316
 C       -5.962284315    15.854455784     2.734893559
 C       -4.870590005    16.143082288     1.910727719
 C       -5.110725105    16.698412397     0.647200066
 C       -6.409866096    16.958258396     0.219349546
 C       -3.491857435    15.884770360     2.310885934
 C       -3.119667551    15.357457357     3.489324075
 C       -1.736413184    15.103604770     3.878381197
 C       -0.654497226    15.392718281     3.041894205
 C        0.652540014    15.134369180     3.452753171
 C        0.907078832    14.582798572     4.713165409
 C       -0.175647119    14.290231738     5.551724661
 C       -1.480722133    14.544352401     5.136850918
Si        2.638538330    14.241117896     5.256120670
 C        3.805471365    15.484736464     4.490260458
 C        2.762964055    14.359544458     7.117510664
 C        3.094219056    12.516775276     4.699515006
 C       -9.210510602    18.450387112    -0.738298555
 C      -10.303856197    17.462932705     1.933611027
 C       -5.073765362    12.626639291     1.574588166
 C       -2.842902617    13.731702268    -0.220590459
 C       -0.616492185    -0.876794343    -1.531344716
 C       -0.612067052    -0.880179518     1.531450665
 H        1.259709467     2.743546747    -0.102386637
 H        0.312141984     4.979966270    -0.098511931
 H       -3.662222417     3.340769198     0.103215070
 H       -2.757925170     1.083581845     0.101621140
 H       -3.442686973     5.656811365     0.054539590
 H       -0.573847489     6.812583143    -0.091117064
 H       -0.373800871     9.142357118    -0.138434978
 H       -1.303476858    11.391368040    -0.134070114
 H       -5.303303607     9.684496213     0.073025614
 H       -4.329677105     7.460042468     0.067360415
 H       -5.827958343    13.561085468    -1.467933561
 H       -5.126000828    10.622523488    -2.266930180
 H       -6.174924083     9.725986982    -4.095610975
 H       -7.724636540     9.862396118    -6.002739281
 H       -8.831043546    13.858414171    -4.783684590
 H       -7.164481391    13.773768225    -3.002181788
 H      -10.558250276    13.079830879    -7.825039459
 H       -9.235566056    13.945874350    -7.019968409
 H      -10.689477956    13.466580510    -6.084012397
 H      -13.071375001     8.576889222    -3.473992928
 H      -13.385911361    10.305304564    -3.801889361
 H      -13.225763890     9.717613437    -2.118818137
 H       -9.035782807    10.023484851    -2.033256816
 H       -8.095351110    12.019835728    -0.915178017
 H      -11.769041266    14.151978185    -1.657370948
 H      -12.689208648    12.183635395    -2.796705288
 H       -8.251783881    14.207923737    -0.173015333
 H      -10.940278946    15.702708995    -0.722622002
 H       -8.077864041    15.873109437     2.999601107
 H       -5.802264478    15.422966469     3.721397344
 H       -4.275128910    16.931887119    -0.010165655
 H       -6.535448012    17.387626335    -0.779106521
 H       -2.739985113    16.166616945     1.567108363
 H       -3.866135160    15.079946326     4.238863612
 H       -0.824522608    15.825027500     2.057491239
 H        1.457006261    15.382287527     2.754760097
 H       -0.037832036    13.857851018     6.546698650
 H       -2.309023093    14.306752012     5.802025807
 H      -10.786282915    10.804909802    -7.667460011
 H       -9.626549380     9.794002906    -6.790559680
 H      -11.373847586    11.598438724    -5.061209574
 H      -12.230187236    10.321015804    -5.919722347
 H      -10.997261793     8.552678431    -4.805866577
 H       -9.663527752     9.645527646    -4.346705670
 H        2.266251000    -1.030689955     0.017261330
 H        2.273830535     0.524586670     0.883858957
 H        2.274887769     0.494764009    -0.900249482
 H        4.837159189    15.343650501     4.858955783
 H        3.504242234    16.519365857     4.735410508
 H        3.833888521    15.397415869     3.390153735
 H        2.411668737    15.342409271     7.480532830
 H        2.159140541    13.582971554     7.618902411
 H        3.806935608    14.234877664     7.456448133
 H        3.029820396    12.418329465     3.600909218
 H        4.124203703    12.255206549     4.999176987
 H        2.416517833    11.761013871     5.136510084
 H       -8.682521599    18.187697271    -1.672346068
 H      -10.237980676    18.746670066    -1.014700090
 H       -8.713177688    19.338905080    -0.309671877
 H      -10.425289323    16.606018652     2.620276650
 H       -9.876513260    18.299973877     2.514500591
 H      -11.314047309    17.766613154     1.606360032
 H       -5.812341793    11.821311675     1.732046081
 H       -4.380865189    12.618301832     2.435606638
 H       -5.618297133    13.589737703     1.596388323
 H       -2.246447056    13.582912926    -1.137885643
 H       -3.304496731    14.733808994    -0.282822995
 H       -2.149722815    13.734953634     0.640443622
 H       -0.274242332    -0.365890647    -2.449657606
 H       -0.251649074    -1.918025622    -1.573401050
 H       -1.719948697    -0.907648998    -1.563913706
 H       -0.268068783    -0.369612843     2.449398820
 H       -1.715199188    -0.914204783     1.567175032
 H       -0.244609984    -1.920618073     1.571254093

