139   

Si        0.000000000     0.000000000     0.000000000
 C        1.869456682     0.000000000     0.000000000
 C       -0.645042565     1.729915022     0.000000000
 C        0.176953228     2.810354658    -0.334974919
 C       -0.324139857     4.111952202    -0.330665019
 C       -1.657544161     4.363216514     0.003227682
 C       -2.481160109     3.278915319     0.334721471
 C       -1.983518161     1.978485395     0.332044837
 C       -2.224248832     5.708007883     0.020872635
 C       -1.542277307     6.827519624    -0.275164268
 C       -2.104890040     8.173895295    -0.258780376
 C       -3.438034422     8.430390719     0.074517262
 C       -3.933597297     9.733737431     0.077162196
 C       -3.101463815    10.810118519    -0.247646647
 C       -1.765457214    10.557140266    -0.582075448
 C       -1.275742272     9.253470313    -0.590323794
Si       -3.749721100    12.538216101    -0.246459258
 C       -2.331159834    13.681766120    -0.062546455
 C       -1.975829727    14.628660559    -0.941087139
 C       -0.834462190    15.527411659    -0.763231323
 C       -0.559950854    16.481679212    -1.753780824
 C        0.507657503    17.355306001    -1.633556132
 C        1.323003182    17.333426775    -0.479169755
 C        1.048107722    16.374471091     0.516159083
 C        0.000133140    15.478103204     0.356992487
 N        2.398095166    18.222611731    -0.372650140
 C        2.256471907    19.559221250    -0.970347343
 C        3.200475986    18.182388681     0.856090281
 C        1.001733380    20.344280826    -0.544992376
 C        1.092325428    20.984327682     0.851751405
 N        2.071082241    22.079011726     1.007477584
 C        3.391453377    21.669223201     1.318883855
 C        3.583743243    20.968421765     2.527192934
 C        4.849774420    20.540061443     2.890063254
 C        5.965840468    20.823550206     2.087532607
 C        5.773614915    21.544629567     0.906770069
 C        4.507454929    21.976509287     0.526360288
 C        1.943086184    23.134051196    -0.009071111
 C        7.282510173    20.346635384     2.518262968
 C        8.416086200    20.555909534     1.836692764
Si       10.080729755    19.976719841     2.340908900
 C       11.172570114    21.449276774     2.544766246
 C       10.621228869    22.714624865     2.779436932
 C       11.447094116    23.825598890     2.933152753
 C       12.840563031    23.698346986     2.864282215
 C       13.387150296    22.432215850     2.634686547
 C       12.563599437    21.318280110     2.477317959
 C       13.663829730    24.891775414     3.031607639
 C       15.006754023    24.907099529     2.984893832
 C       15.830375224    26.100197371     3.152151542
 C       15.285704727    27.366653994     3.381730784
 C       16.110949827    28.480242026     3.535769715
 C       17.501750287    28.352948517     3.454836444
 C       18.049821943    27.084845947     3.224068231
 C       17.223727648    25.973223622     3.078279739
Si       18.597157625    29.825579266     3.658366295
 C       17.706988940    31.370499049     3.096469017
 C       19.046460781    29.976665585     5.465733376
 C       20.147348143    29.614994837     2.634892001
 C       10.027392367    19.046589501     3.958422930
 C       10.736351590    18.868207310     0.987875480
 C       -4.671059466    12.827854492    -1.844376777
 C       -4.895737347    12.795314143     1.206986162
 C       -0.629037593    -0.864528758    -1.532333930
 C       -0.607172573    -0.888436759     1.528729970
 H        1.228149923     2.677546214    -0.605271171
 H        0.338241706     4.935375888    -0.592346981
 H       -3.523129891     3.452260049     0.597521341
 H       -2.673646975     1.173472214     0.599354038
 H       -3.280649829     5.756116458     0.300464157
 H       -0.485615831     6.777847248    -0.555134734
 H       -4.103009249     7.609286481     0.335300663
 H       -4.984560259     9.872689467     0.344396238
 H       -1.070871187    11.362352718    -0.845166311
 H       -0.235144159     9.075198370    -0.855657623
 H       -1.763782272    13.530894784     0.870141818
 H       -2.522185616    14.803939087    -1.877344138
 H       -1.189235788    16.530817091    -2.643078368
 H        0.717938314    18.055722169    -2.436053055
 H        1.651569037    16.321032688     1.416360301
 H       -0.180632919    14.734322127     1.135124347
 H        4.048902194    18.887853903     0.778823787
 H        3.637461850    17.173464047     0.973176953
 H        2.630685508    18.435623188     1.764836445
 H        0.891173362    23.467296632    -0.048051959
 H        2.251159418    22.832254349    -1.022265275
 H        2.548361591    24.005810528     0.299252263
 H        2.732207528    20.777235560     3.177498006
 H        4.981291506    19.990363298     3.822686643
 H        6.625980896    21.780577308     0.267455396
 H        4.394075941    22.537318483    -0.396667198
 H        7.253555087    19.795238281     3.467329102
 H        8.414397983    21.112589617     0.885202788
 H        9.539710521    22.873195146     2.845814656
 H       11.001016438    24.802599248     3.110909227
 H       14.466739895    22.305954019     2.576717097
 H       13.048311146    20.354633190     2.298381537
 H       13.101697471    25.814193853     3.205165926
 H       15.568669067    23.984487428     2.811668825
 H       14.206337516    27.494032709     3.443684316
 H       15.625923505    29.443779317     3.715357380
 H       19.128999750    26.924377871     3.150581675
 H       17.669030819    24.995729328     2.901908289
 H        3.173594809    20.151095144    -0.745549026
 H        2.252632564    19.427822238    -2.079537960
 H        0.787704850    21.120020409    -1.303714588
 H        0.118060363    19.671429984    -0.563449750
 H        0.096452452    21.412338304     1.121129462
 H        1.302110805    20.196290403     1.609013352
 H        2.267893289    -1.028243656     0.065785653
 H        2.270987585     0.565991916     0.859851431
 H        2.277939606     0.452660126    -0.920660279
 H       18.367801335    32.253986513     3.151340603
 H       16.820655387    31.582823322     3.719535173
 H       17.365018318    31.276590966     2.049816256
 H       18.146677831    30.105702271     6.093966709
 H       19.572026787    29.074205755     5.826484052
 H       19.707150990    30.842841900     5.645721645
 H       19.903388805    29.446554169     1.570262336
 H       20.787546401    30.513461380     2.690217165
 H       20.752163675    28.757576760     2.978165560
 H        9.635759086    19.680895047     4.774744086
 H        9.384779591    18.151103450     3.888998973
 H       11.035670661    18.710368961     4.260988893
 H       10.853041954    19.418860666     0.036754669
 H       11.721492438    18.444392590     1.250203344
 H       10.050566967    18.022309543     0.798686839
 H       -4.011226821    12.686560020    -2.719942337
 H       -5.515580044    12.124173006    -1.953891107
 H       -5.081413552    13.851961103    -1.893404575
 H       -4.396436397    12.547622695     2.161185458
 H       -5.227891890    13.847358588     1.270364187
 H       -5.798792307    12.165456308     1.129914155
 H       -0.282222751    -0.356587312    -2.450476450
 H       -0.279260253    -1.910802209    -1.577190074
 H       -1.733232476    -0.879150240    -1.562186855
 H       -0.289108660    -0.363201647     2.447761755
 H       -1.708764470    -0.957514744     1.551406322
 H       -0.209160455    -1.917335267     1.578834925

