139   

Si        0.000000000     0.000000000     0.000000000
 C        1.868960899     0.000000000     0.000000000
 C       -0.657386399     1.725112034     0.000000000
 C        0.186739922     2.832009958     0.126980086
 C       -0.334185898     4.126142210     0.124194358
 C       -1.708406876     4.342588423    -0.004063360
 C       -2.553650036     3.231572825    -0.129522767
 C       -2.036853265     1.939037692    -0.126625742
 C       -2.298112223     5.677171290    -0.012148429
 C       -1.602318146     6.821337435     0.100199585
 C       -2.193256234     8.155405844     0.091972668
 C       -3.568422860     8.368695146    -0.036498313
 C       -4.091121560     9.661633063    -0.039505227
 C       -3.247366459    10.768017720     0.095773332
 C       -1.868659619    10.558567782     0.227593625
 C       -1.349635915     9.266711910     0.223566025
Si       -3.916741496    12.488512533     0.094566719
 C       -2.676074915    13.484521030    -0.809493387
 C       -1.983525616    14.533632999    -0.348101002
 C       -1.007881341    15.262528998    -1.165518268
 C       -0.316082223    16.353291206    -0.620806735
 C        0.613470078    17.060472520    -1.374688131
 C        0.907633545    16.647894334    -2.682396833
 C        0.248406667    15.534330958    -3.216201763
 C       -0.687525549    14.843852729    -2.460428574
 N        1.872570751    17.406878183    -3.423171917
 C        1.313805193    18.642767232    -4.025895936
 C        2.644871884    16.590666761    -4.378768838
 C       -0.133300905    18.577710623    -4.554562985
 C       -0.295939086    18.814305437    -6.067114533
 N       -0.048657653    17.654743484    -6.951178172
 C       -0.553105777    16.412163676    -6.528850078
 C       -1.856003796    16.357754083    -5.983219113
 C       -2.387250850    15.153356736    -5.556459296
 C       -1.663644898    13.956178476    -5.675802042
 C       -0.392848695    14.006753229    -6.252605852
 C        0.150925582    15.206515010    -6.700354493
 C        1.279023070    17.670679450    -7.581670985
 C       -2.276093188    12.710938462    -5.207131369
 C       -1.681519893    11.512450614    -5.270227731
Si       -2.403345221     9.926970253    -4.698672047
 C       -2.505384931     8.775487831    -6.135233668
 C       -2.562794767     9.270764047    -7.441890628
 C       -2.639918539     8.397833813    -8.526533923
 C       -2.670153262     7.014597261    -8.328896275
 C       -2.617272479     6.521532910    -7.018225175
 C       -2.536204350     7.390224706    -5.932863299
 C       -2.750446653     6.063550753    -9.432843211
 C       -2.806798881     6.402123123   -10.732134479
 C       -2.887078130     5.450509733   -11.835504113
 C       -2.913353838     4.067054317   -11.637751335
 C       -2.990618673     3.193333586   -12.721671095
 C       -3.051903713     3.684929731   -14.030122399
 C       -3.026605078     5.070661893   -14.230876055
 C       -2.941992745     5.940908102   -13.146751310
Si       -3.154203043     2.528474105   -15.465377594
 C       -4.055352023     0.967825784   -14.967264144
 C       -4.078710566     3.336263294   -16.875481763
 C       -1.415707738     2.109069873   -16.007234196
 C       -1.294664257     9.234531911    -3.367725525
 C       -4.127067718    10.156450107    -4.019485004
 C       -5.533741983    12.584732418    -0.834495762
 C       -4.151284036    13.060097826     1.853445160
 C       -0.611121612    -0.879658747    -1.531888897
 C       -0.622171639    -0.872533244     1.530843919
 H        1.270247560     2.726257934     0.230177683
 H        0.345438689     4.970910233     0.223511475
 H       -3.627599696     3.378022563    -0.230093573
 H       -2.745270732     1.111882460    -0.227405861
 H       -3.386866880     5.695156291    -0.119273999
 H       -0.513869461     6.803474068     0.208912366
 H       -4.245441044     7.522903840    -0.139863927
 H       -5.173654797     9.766697322    -0.149862683
 H       -1.162376245    11.389736410     0.330300658
 H       -0.275568245     9.121232259     0.325758507
 H       -2.531165832    13.125503803    -1.846099666
 H       -2.093640498    14.927697273     0.667976174
 H       -0.521201451    16.667341062     0.401554040
 H        1.132535005    17.919515800    -0.954602755
 H        0.468657116    15.197135722    -4.228126242
 H       -1.182651418    13.975373751    -2.903911106
 H        3.505222739    17.184004935    -4.730643678
 H        2.070736027    16.238416330    -5.249757102
 H        3.051273887    15.708211863    -3.852824023
 H        1.452880267    18.661845405    -8.036447382
 H        1.304365652    16.938447112    -8.409179052
 H        2.107447852    17.456925981    -6.888178871
 H       -2.445534635    17.267108419    -5.900660615
 H       -3.389566815    15.137227107    -5.125268237
 H        0.187397450    13.089604638    -6.372216155
 H        1.131777083    15.196318237    -7.163772349
 H       -3.284265801    12.852673376    -4.795927225
 H       -0.666992618    11.403673614    -5.687663451
 H       -2.544473215    10.344259640    -7.656908736
 H       -2.678226858     8.806486238    -9.534664771
 H       -2.638355744     5.447497551    -6.843105715
 H       -2.493970519     6.948013838    -4.932841163
 H       -2.762640884     5.012182517    -9.130193992
 H       -2.794713015     7.453379672   -11.034768394
 H       -2.872182832     3.658746189   -10.629435932
 H       -3.005302472     2.121974905   -12.503065593
 H       -3.072378490     5.512666400   -15.229950574
 H       -2.921390784     7.014781282   -13.323608226
 H        1.367205212    19.409802859    -3.215312430
 H        2.002561120    18.991432506    -4.823308362
 H       -0.604392668    17.611959583    -4.275772475
 H       -0.742264978    19.332187055    -4.017656768
 H       -1.347090415    19.139656041    -6.268930396
 H        0.348007164    19.660665263    -6.390658793
 H        2.266586134    -1.030305877    -0.032941041
 H        2.275999471     0.481095179     0.907095724
 H        2.272891428     0.537571329    -0.876605977
 H       -4.186561816     0.290426477   -15.829673233
 H       -5.060459119     1.196707926   -14.568905961
 H       -3.507373421     0.408571951   -14.188988376
 H       -5.083529542     3.667875406   -16.556570984
 H       -3.543153521     4.219984197   -17.264019121
 H       -4.212961672     2.635092454   -17.718219330
 H       -0.845860048     1.627359440   -15.192346674
 H       -1.417669002     1.417890193   -16.868096174
 H       -0.858336087     3.014928055   -16.306503748
 H       -0.269642827     9.057291194    -3.736517838
 H       -1.226553333     9.927671452    -2.506083139
 H       -1.680377413     8.275516478    -2.975977920
 H       -4.819535367    10.542183377    -4.788087191
 H       -4.538649683     9.198082208    -3.654447908
 H       -4.130434451    10.861353063    -3.170065475
 H       -5.437889956    12.196598935    -1.864825585
 H       -6.326687963    12.005108536    -0.330504457
 H       -5.886112232    13.630035052    -0.908205387
 H       -3.203120129    13.021943696     2.420580122
 H       -4.524523578    14.098955681     1.894407582
 H       -4.878608761    12.424085262     2.389751554
 H       -0.269921270    -0.366772097    -2.449597641
 H       -0.239401165    -1.918684635    -1.573607111
 H       -1.714040810    -0.918805328    -1.566490653
 H       -0.276082620    -0.364643872     2.449480401
 H       -1.725953511    -0.894962262     1.563433084
 H       -0.265259130    -1.916623033     1.572524516

