139   

Si        0.000000000     0.000000000     0.000000000
 C        1.869463734     0.000000000     0.000000000
 C       -0.648947534     1.728191542     0.000000000
 C        0.150923652     2.804347709     0.396856423
 C       -0.354384487     4.104437868     0.391214764
 C       -1.670967307     4.357566835    -0.002599765
 C       -2.472798650     3.277216616    -0.394785608
 C       -1.970409577     1.978750011    -0.392827382
 C       -2.243300083     5.699656374    -0.024768275
 C       -1.585445468     6.818788825     0.322675610
 C       -2.160952658     8.159788300     0.299351898
 C       -1.361717778     9.243333908     0.688068634
 C       -1.867876593    10.540706932     0.681824080
 C       -3.190994417    10.783418961     0.293185825
 C       -3.991216818     9.703746458    -0.094705361
 C       -3.479067011     8.406788130    -0.094191617
Si       -3.871144308    12.499003544     0.281512491
 C       -5.697432169    12.393147471     0.368105811
 C       -6.548240517    12.868991135    -0.550785440
 C       -8.004827196    12.768465194    -0.452316378
 C       -8.794413380    13.305424141    -1.479259350
 C      -10.176772404    13.236666283    -1.434477405
 C      -10.828796051    12.660208380    -0.320729951
 C      -10.035345032    12.120016729     0.712119432
 C       -8.650603223    12.158573196     0.627284829
 N      -12.224225404    12.595163881    -0.284288201
 C      -12.994392604    13.643841327    -0.968502899
 C      -12.856033067    12.056777030     0.926154768
 C      -12.650798750    15.088121343    -0.558630999
 C      -13.246904961    15.525923331     0.790845125
 N      -14.715845353    15.664784090     0.843901262
 C      -15.424676414    14.473289502     1.138965165
 C      -15.180295587    13.869956989     2.389594650
 C      -15.839783040    12.703869315     2.740844538
 C      -16.782676497    12.120162271     1.880705644
 C      -17.042036924    12.738636100     0.655367853
 C      -16.384921291    13.907904320     0.287086265
 C      -15.270464200    16.495778234    -0.235213527
 C      -17.451309387    10.886267152     2.301752215
 C      -18.365986601    10.240694481     1.567103097
Si      -19.225320704     8.696632463     2.055738121
 C      -21.038053339     9.034220172     2.104305266
 C      -21.511474753    10.342767583     2.259282123
 C      -22.880303157    10.596967740     2.295872292
 C      -23.806890868     9.551770953     2.187336925
 C      -23.329894927     8.246135919     2.038105797
 C      -21.960261380     7.988020593     1.997952009
 C      -25.230790581     9.868694216     2.231148077
 C      -26.219338351     8.963539871     2.135343010
 C      -27.643195253     9.280643213     2.179174114
 C      -28.120907653    10.585615119     2.328335009
 C      -29.490869819    10.843143072     2.365170418
 C      -30.415348734     9.800034978     2.244702122
 C      -29.939005742     8.491601717     2.094456897
 C      -28.570217886     8.236214330     2.065806075
Si      -32.229650750    10.139382295     2.293280869
 C      -32.580785055    11.847329108     1.618613758
 C      -33.144687273     8.880704816     1.257208925
 C      -32.799910053    10.031553045     4.069350740
 C      -18.843129612     7.395265261     0.771420051
 C      -18.684018995     8.107689816     3.742264142
 C       -3.271722397    13.439698948     1.780926611
 C       -3.299668815    13.352428556    -1.277958173
 C       -0.604205186    -0.894038245    -1.526850651
 C       -0.627978378    -0.863998400     1.533362302
 H        1.187857387     2.669568572     0.716437112
 H        0.290772135     4.925317611     0.699538287
 H       -3.501356264     3.452287259    -0.705325421
 H       -2.643210995     1.177188600    -0.710131749
 H       -3.285299096     5.746644524    -0.355348001
 H       -0.543711023     6.773394525     0.653304454
 H       -0.332719726     9.071894090     0.998056784
 H       -1.197929342    11.346658438     0.992984856
 H       -5.032597439     9.835906917    -0.408202849
 H       -4.120851903     7.583378812    -0.402771999
 H       -6.064674518    11.888380402     1.276127130
 H       -6.211087575    13.377608444    -1.463756330
 H       -8.313962230    13.775225581    -2.338286422
 H      -10.756324512    13.625143230    -2.266093724
 H      -10.494328556    11.662287788     1.582097344
 H       -8.060147822    11.716929081     1.432227309
 H      -13.956145235    12.047403010     0.813201409
 H      -12.614393289    12.625458058     1.839037679
 H      -12.543167168    11.004904580     1.063170140
 H      -14.733217952    17.460441077    -0.253569212
 H      -16.329360359    16.718664353    -0.011689979
 H      -15.210423155    16.043871548    -1.237572112
 H      -14.478356813    14.333313087     3.080411186
 H      -15.635472409    12.245104632     3.708877607
 H      -17.773988957    12.306651741    -0.029109045
 H      -16.612960609    14.365305832    -0.671104821
 H      -17.129676463    10.536305271     3.291481461
 H      -18.668659221    10.615411220     0.575470447
 H      -20.833717325    11.197962152     2.351809464
 H      -23.230860301    11.620987585     2.412354479
 H      -24.028983195     7.416382307     1.951728041
 H      -21.647420421     6.947234837     1.877627775
 H      -25.459000448    10.931889104     2.351893580
 H      -25.991681706     7.900243616     2.014880303
 H      -27.422651520    11.415890504     2.418668501
 H      -29.803130879    11.884210874     2.486145639
 H      -30.613669262     7.636822432     1.995142883
 H      -28.219686935     7.212134634     1.950751475
 H      -12.824569791    13.519771849    -2.065682312
 H      -14.080808088    13.449447445    -0.813780664
 H      -11.547589686    15.207553366    -0.506707929
 H      -12.977046757    15.777573635    -1.359381225
 H      -12.918057011    14.822572358     1.588245555
 H      -12.827032356    16.523223663     1.067718385
 H        2.267295902    -1.029237488    -0.051975454
 H        2.278896240     0.465421947     0.913726061
 H        2.270275228     0.554355426    -0.867766019
 H      -33.666559685    12.047509084     1.585230644
 H      -32.191000434    11.958888076     0.590567944
 H      -32.119062179    12.635845737     2.238243289
 H      -32.768427440     8.868029667     0.218202167
 H      -33.037910600     7.859759717     1.663478534
 H      -34.224915491     9.107717173     1.215324131
 H      -32.274733508    10.766130365     4.706122977
 H      -33.883115313    10.227034522     4.156686899
 H      -32.605213752     9.030368637     4.494254404
 H      -19.228315445     7.684416617    -0.223216080
 H      -17.752930420     7.241984685     0.672804270
 H      -19.292979182     6.421367030     1.032376150
 H      -18.894747711     8.864228104     4.520205714
 H      -19.215596769     7.183377158     4.032711136
 H      -17.601377274     7.890940237     3.766857274
 H       -3.518515855    12.905139650     2.715979038
 H       -2.178082135    13.586546373     1.758946289
 H       -3.741081010    14.438578109     1.837105633
 H       -3.646919605    12.816078011    -2.179943708
 H       -3.680620924    14.387494747    -1.333457841
 H       -2.197140564    13.398885605    -1.328974974
 H       -0.303069695    -0.361075817    -2.447039950
 H       -0.187845338    -1.915418252    -1.582753359
 H       -1.704423267    -0.983704063    -1.540616501
 H       -0.280276081    -0.356163479     2.451127170
 H       -1.732227910    -0.877534229     1.563618684
 H       -0.279056658    -1.910520653     1.577876491

