139   

Si        0.000000000     0.000000000     0.000000000
 C        1.869669687     0.000000000     0.000000000
 C       -0.647878295     1.727743894     0.000000000
 C        0.170774104     2.815251757     0.318372603
 C       -0.340295085     4.113049483     0.312034929
 C       -1.683675383     4.351268765     0.010727416
 C       -2.504800052     3.259176856    -0.300445911
 C       -1.994087909     1.964167649    -0.309488461
 C       -2.260215130     5.691018735    -0.007572787
 C       -1.574783372     6.815723568     0.257959154
 C       -2.144662487     8.158432741     0.241524278
 C       -1.309422579     9.243387589     0.539474022
 C       -1.805150874    10.544268888     0.537097814
 C       -3.155799867    10.785602164     0.259135791
 C       -3.993617798     9.704659957    -0.033566553
 C       -3.489315849     8.404733184    -0.048026793
Si       -3.812570901    12.506658631     0.255787891
 C       -5.629238864    12.444318250     0.498895185
 C       -6.543727974    12.913383952    -0.359129468
 C       -7.992153971    12.849197563    -0.136928462
 C       -8.843757808    13.378779378    -1.117695121
 C      -10.221722199    13.343281384    -0.956388498
 C      -10.772346239    12.813911135     0.219143720
 C       -9.931729523    12.307247187     1.214376523
 C       -8.551706271    12.330336229     1.034330270
 N      -12.212563761    12.823519825     0.286999764
 C      -12.804279807    11.473582057     0.194510758
 C      -12.706673851    13.617405883     1.427517733
 C      -12.940948985    10.697526183     1.518208783
 C      -13.197220128     9.198651938     1.268591191
 N      -11.988690727     8.347149223     1.275214064
 C      -11.059263936     8.668991643     0.242652994
 C      -11.456538118     8.406283136    -1.081379605
 C      -10.600674976     8.695535931    -2.132601056
 C       -9.339106242     9.262733225    -1.899607079
 C       -8.945492241     9.503008616    -0.581195358
 C       -9.781747275     9.189047778     0.484673267
 C      -11.405448732     8.198309535     2.620324783
 C       -8.468325430     9.551285604    -3.041830683
 C       -7.248954638    10.090946072    -2.925037033
Si       -6.106876677    10.478874255    -4.303192718
 C       -4.614117655     9.459682577    -3.931839823
 C       -4.762431768     8.069079100    -3.833908150
 C       -3.664070865     7.262237163    -3.555524562
 C       -2.394608687     7.823895539    -3.359921448
 C       -2.251858880     9.210388229    -3.451133245
 C       -3.351592416    10.022470592    -3.731679146
 C       -1.278774584     6.930396304    -3.070876826
 C       -0.011504873     7.324913013    -2.862976790
 C        1.092963739     6.416106075    -2.574791435
 C        0.923015249     5.031152866    -2.488896398
 C        2.003318747     4.195556290    -2.211571184
 C        3.280953947     4.729562067    -2.007807739
 C        3.453106823     6.116241948    -2.087024780
 C        2.370852849     6.948772261    -2.363878565
Si        4.697266915     3.605583622    -1.641900981
 C        4.535858580     3.024275266     0.128280546
 C        4.632368207     2.137106787    -2.797418015
 C        6.325806896     4.494184826    -1.865369445
 C       -6.796405059     9.983782496    -5.965264488
 C       -5.749638583    12.310338707    -4.305162241
 C       -3.094826010    13.469900023     1.688251191
 C       -3.332784522    13.322808003    -1.352719865
 C       -0.598139246    -0.879471240    -1.537846204
 C       -0.630586961    -0.870329824     1.527531681
 H        1.227907671     2.694074094     0.570941952
 H        0.324733873     4.944477566     0.544735163
 H       -3.554009006     3.422858414    -0.538867800
 H       -2.681202350     1.153276801    -0.564503028
 H       -3.324090019     5.731692243    -0.257671043
 H       -0.508184687     6.774272957     0.501417458
 H       -0.259151203     9.069742371     0.766490488
 H       -1.105239569    11.351917722     0.765312971
 H       -5.055462343     9.836232306    -0.267171458
 H       -4.156580371     7.579884535    -0.294499339
 H       -5.928983400    11.971596335     1.448959489
 H       -6.275936960    13.387640447    -1.312834764
 H       -8.423791922    13.800649946    -2.030041907
 H      -10.887208986    13.727940657    -1.729092442
 H      -10.351011216    11.902342127     2.130883798
 H       -7.907650131    11.934609675     1.819481344
 H      -13.807410149    13.659987573     1.382630558
 H      -12.328985706    14.650360906     1.322708124
 H      -12.406392556    13.241489543     2.416344448
 H      -12.159662906     7.734283261     3.279476731
 H      -11.070824483     9.138747063     3.083970841
 H      -10.548070762     7.503786692     2.570179490
 H      -12.431386789     7.962463230    -1.271011520
 H      -10.916686008     8.481635307    -3.153230511
 H       -7.967514176     9.943870311    -0.373227476
 H       -9.444079942     9.385206699     1.498135138
 H       -8.913329193     9.284111236    -4.007728199
 H       -6.836775130    10.356854172    -1.934989753
 H       -5.731068463     7.577012331    -3.966304172
 H       -3.793603144     6.183676120    -3.485926459
 H       -1.278473175     9.670740149    -3.293025041
 H       -3.180552317    11.100152455    -3.787078698
 H       -1.545104591     5.868880194    -3.023200390
 H        0.258666949     8.383149610    -2.901359603
 H       -0.063070216     4.589897236    -2.634491834
 H        1.803332727     3.120973018    -2.156236233
 H        4.427103576     6.588326681    -1.937339074
 H        2.523919057     8.024528317    -2.419499160
 H      -13.810372204    11.608376430    -0.266320755
 H      -12.202507718    10.882278250    -0.535874423
 H      -12.029185842    10.827206713     2.129498683
 H      -13.765728021    11.122738172     2.117576753
 H      -13.889812500     8.797740313     2.042665661
 H      -13.713771624     9.048756831     0.293725003
 H        2.266595996    -1.030298706    -0.031439976
 H        2.278751499     0.481217583     0.905962590
 H        2.271809114     0.535073101    -0.879392206
 H        5.378400170     2.370944896     0.413859060
 H        3.602058974     2.453989102     0.282422312
 H        4.522386704     3.877856075     0.829528280
 H        3.691380901     1.569541265    -2.686594472
 H        4.701034691     2.458509506    -3.852691075
 H        5.466920121     1.439879740    -2.607618214
 H        6.437099633     5.329184433    -1.151615906
 H        7.178610910     3.810276515    -1.707122292
 H        6.420699630     4.909750769    -2.884715175
 H       -7.020901695     8.902918781    -6.007349959
 H       -7.728936970    10.528866835    -6.194884572
 H       -6.077483190    10.199050835    -6.776433884
 H       -5.379767053    12.657431668    -3.323824252
 H       -4.991367380    12.571437035    -5.064134249
 H       -6.662786225    12.888398228    -4.536840630
 H       -3.291740106    12.965867647     2.651554815
 H       -2.001445701    13.586016133     1.592755533
 H       -3.532522372    14.482453811     1.748659871
 H       -3.633338125    12.709915083    -2.222223612
 H       -3.797361137    14.318425726    -1.458751477
 H       -2.237907370    13.458441097    -1.415256083
 H       -0.277942770    -0.349311352    -2.453167862
 H       -0.200080646    -1.907918900    -1.592115881
 H       -1.699433606    -0.950137305    -1.565173393
 H       -0.286152001    -0.365867900     2.448505666
 H       -1.734772231    -0.885749410     1.555989395
 H       -0.281153351    -1.916704141     1.569343764

