139   

Si        0.000000000     0.000000000     0.000000000
 C        1.869211584     0.000000000     0.000000000
 C       -0.651546138     1.727327113     0.000000000
 C        0.173395414     2.815309049    -0.301527432
 C       -0.334723429     4.114275968    -0.297097310
 C       -1.678612619     4.354416523     0.001136694
 C       -2.505204800     3.262494249     0.298467194
 C       -2.000181051     1.965012895     0.297311580
 C       -2.253648460     5.695643407     0.017699860
 C       -1.571510841     6.823122321    -0.245704251
 C       -2.145085361     8.164798450    -0.229529074
 C       -3.488244034     8.407684045     0.068284975
 C       -3.994133784     9.707996826     0.072064028
 C       -3.166696412    10.793515656    -0.227669913
 C       -1.818385128    10.552864620    -0.528320240
 C       -1.315842437     9.255021585    -0.527490200
Si       -3.796416584    12.528044038    -0.233559759
 C       -2.896034284    13.528377436     1.008636923
 C       -1.922449126    13.066060840     1.804495497
 C       -1.209709725    13.874963421     2.793855311
 C       -0.207659520    13.269083371     3.566881972
 C        0.497681134    13.987759772     4.516963572
 C        0.188378134    15.344837588     4.761037675
 C       -0.817336839    15.953764139     3.986165508
 C       -1.483859379    15.228293552     3.007063274
 N        0.915940279    16.052324592     5.727684554
 C        1.306290840    15.334855867     6.952428877
 C        0.583226705    17.468189591     5.927870695
 C        0.175464459    14.572073514     7.667109454
 C       -0.793932010    15.459827443     8.467576041
 N       -0.235838085    16.136883130     9.655796029
 C        0.394986984    17.379734703     9.393929362
 C       -0.413506546    18.416854704     8.885955536
 C        0.138250750    19.656453971     8.607987284
 C        1.495804770    19.914036837     8.854192089
 C        2.284794586    18.891122856     9.385795244
 C        1.745419618    17.640718278     9.668352110
 C        0.475395325    15.232504263    10.571841059
 C        2.028992516    21.242524245     8.542074090
 C        3.304820758    21.600806982     8.734749143
Si        4.017365401    23.247710833     8.360431345
 C        5.362897406    22.999496196     7.122755390
 C        5.310301150    21.912501625     6.243288239
 C        6.320642224    21.713725157     5.303447622
 C        7.399177692    22.598697187     5.215996311
 C        7.446135692    23.688858222     6.095099893
 C        6.440234546    23.888922514     7.037582220
 C        8.478245806    22.429298068     4.248032847
 C        8.550688772    21.429281955     3.353219680
 C        9.627947309    21.256814203     2.384065335
 C       10.710272578    22.137014756     2.294602677
 C       11.717898109    21.933569955     1.352735313
 C       11.661918266    20.846844450     0.472654573
 C       10.578435455    19.964614090     0.560008561
 C        9.576087151    20.166680153     1.505948892
Si       13.001883107    20.586917499    -0.770846287
 C       13.568303630    22.238316261    -1.439506137
 C       14.426642268    19.720129861     0.071938182
 C       12.377757344    19.540102759    -2.188265044
 C        2.746441268    24.407979653     7.638142152
 C        4.703603900    23.956965151     9.945789102
 C       -3.519570365    13.264124893    -1.928672936
 C       -5.618126044    12.577041400     0.180976945
 C       -0.626813191    -0.867302799    -1.531783028
 C       -0.606980676    -0.886867774     1.529859314
 H        1.232305376     2.690430550    -0.544019749
 H        0.329537928     4.944468786    -0.530769630
 H       -3.555140276     3.427675620     0.533672041
 H       -2.692599221     1.153428435     0.537647945
 H       -3.318146219     5.733924410     0.267336408
 H       -0.507146626     6.784333543    -0.496027146
 H       -4.154328040     7.579203256     0.301754917
 H       -5.052245426     9.835575024     0.316393543
 H       -1.124116219    11.363705311    -0.771739797
 H       -0.266487162     9.087284640    -0.763055250
 H       -3.223187393    14.578160142     1.058343694
 H       -1.581493720    12.020373325     1.777700625
 H        0.030059637    12.215889318     3.409823765
 H        1.295259255    13.503730206     5.072751577
 H       -1.083674334    16.994083330     4.141071538
 H       -2.248048059    15.727179102     2.409606626
 H        1.278292481    17.920350813     6.660083074
 H       -0.444361344    17.636995088     6.288943120
 H        0.724939591    18.013037311     4.976456211
 H       -0.189487068    14.388112049    10.825260974
 H        0.691781348    15.769347132    11.513103828
 H        1.418419617    14.826723742    10.173876635
 H       -1.475177623    18.238654152     8.724995701
 H       -0.497547843    20.447101900     8.208459488
 H        3.342101290    19.068523795     9.590007415
 H        2.384444015    16.868957001    10.087330437
 H        1.275034943    21.926235310     8.130603268
 H        4.038401617    20.891761689     9.152982181
 H        4.489973682    21.186828079     6.263775947
 H        6.260032185    20.857956881     4.632933985
 H        8.277447211    24.389468888     6.043313395
 H        6.530848393    24.755027140     7.698522243
 H        9.258292640    23.194752375     4.293592774
 H        7.769387739    20.664249140     3.308694187
 H       10.775025201    22.992620184     2.964510897
 H       12.539794098    22.654802373     1.332715446
 H       10.480644692    19.099367970    -0.101446786
 H        8.742609933    19.468298629     1.558929348
 H        2.111882501    14.614666288     6.668648011
 H        1.785194773    16.055980582     7.653257197
 H       -0.414375957    13.997536967     6.921178722
 H        0.621492510    13.806862578     8.329949630
 H       -1.243210486    16.221347284     7.791705962
 H       -1.643086692    14.833228501     8.832952883
 H        2.267225801    -1.027307792     0.082095579
 H        2.271459798     0.579130354     0.850698297
 H        2.277902108     0.437805914    -0.927771155
 H       14.312170233    22.109428663    -2.245673001
 H       14.034598818    22.860241092    -0.655622922
 H       12.720726832    22.810945905    -1.858231900
 H       14.816688839    20.315551167     0.916921591
 H       14.118728977    18.738913515     0.475978098
 H       15.262326339    19.545629844    -0.628304338
 H       11.481087929    19.989249757    -2.652504742
 H       13.143437266    19.438616673    -2.977939569
 H       12.109504465    18.521378651    -1.857549506
 H        2.324225374    24.007191426     6.698571116
 H        1.909377355    24.577962995     8.338460314
 H        3.190105075    25.392691142     7.404190747
 H        5.517149879    23.327091029    10.349385517
 H        5.111288807    24.971927947     9.794984088
 H        3.920576408    24.026081038    10.722919364
 H       -2.445688723    13.284839887    -2.188173007
 H       -4.037306726    12.676773925    -2.708171599
 H       -3.895805369    14.300599329    -1.985433249
 H       -5.812358613    12.162554175     1.186876847
 H       -6.003574663    13.612175648     0.172586986
 H       -6.213384926    11.996179584    -0.545318229
 H       -0.281577132    -0.358329890    -2.449991111
 H       -0.273705693    -1.912465282    -1.576614302
 H       -1.730926157    -0.885529458    -1.561615314
 H       -0.288239158    -0.360237270     2.447874684
 H       -1.708558034    -0.955499188     1.553615785
 H       -0.209203109    -1.915786830     1.581013133

