139   

Si        0.000000000     0.000000000     0.000000000
 C        1.868937057     0.000000000     0.000000000
 C       -0.663562657     1.722276181     0.000000000
 C        0.176979450     2.835201578    -0.093091875
 C       -0.351814729     4.126355347    -0.090793762
 C       -1.730255323     4.333317402     0.003431650
 C       -2.571744347     3.216045272     0.095351650
 C       -2.047215826     1.926755391     0.092980459
 C       -2.330076202     5.663526148     0.009791851
 C       -1.642314679     6.815208179    -0.072275845
 C       -2.246982615     8.143425972    -0.065508374
 C       -1.414145776     9.265516593    -0.157274770
 C       -1.948053308    10.552811333    -0.154497885
 C       -3.329575422    10.747466420    -0.053874981
 C       -4.164534620     9.626692100     0.039311945
 C       -3.628067237     8.340793153     0.031876517
Si       -4.079088559    12.433852669    -0.046379273
 C       -5.215544806    12.615829244    -1.471751219
 C       -5.459933990    11.661238192    -2.379410200
 C       -6.368678441    11.812207043    -3.515880408
 C       -6.535567871    10.731588905    -4.395068515
 C       -7.382634108    10.819266675    -5.486492901
 C       -8.066713719    12.023976039    -5.765904705
 C       -7.899590453    13.109488145    -4.883943905
 C       -7.079775070    12.987933305    -3.769378338
 N       -8.919292693    12.092159952    -6.875084694
 C       -8.536837635    11.345165128    -8.084032952
 C       -9.601635048    13.365935433    -7.134532410
 C       -7.108664783    11.604177900    -8.598475120
 C       -6.938994758    12.926512724    -9.366974589
 N       -7.615069060    13.011768023   -10.676709251
 C       -8.974433069    13.410090030   -10.630930598
 C       -9.256076067    14.691931494   -10.115767350
 C      -10.564216869    15.141371862   -10.043831598
 C      -11.626383965    14.350758670   -10.509113359
 C      -11.338188254    13.093653948   -11.045651897
 C      -10.030187703    12.627165957   -11.121262627
 C       -7.298656144    11.894264484   -11.578860784
 C      -12.991252886    14.874195789   -10.409355765
 C      -14.080224670    14.211508471   -10.819361312
Si      -15.803528661    14.827178771   -10.713903729
 C      -16.495575178    14.902512966   -12.422126897
 C      -15.642609154    14.996880626   -13.528543977
 C      -16.165062901    15.053754998   -14.818177075
 C      -17.549270692    15.026182244   -15.033064612
 C      -18.397623469    14.936979248   -13.925582867
 C      -17.878082905    14.876613574   -12.632988600
 C      -18.048118407    15.088208662   -16.403129237
 C      -19.347282931    15.067077927   -16.745987513
 C      -19.845591532    15.129132212   -18.116247053
 C      -18.997944015    15.218320232   -19.223853044
 C      -19.517698745    15.275315532   -20.516608224
 C      -20.899413269    15.234997686   -20.731130765
 C      -21.751153161    15.144606621   -19.622859111
 C      -21.229562237    15.095932791   -18.332484976
Si      -21.593303839    15.310107214   -22.440523478
 C      -20.355130312    14.635948840   -23.668325602
 C      -23.156675782    14.289346899   -22.536518266
 C      -21.975027254    17.094369653   -22.842471265
 C      -16.780472899    13.623581417    -9.671901854
 C      -15.884369357    16.534411707    -9.963622701
 C       -5.044923496    12.659183209     1.537261438
 C       -2.760756126    13.752303727    -0.170000661
 C       -0.619945213    -0.875538409    -1.530353404
 C       -0.610407262    -0.879941921     1.532185679
 H        1.263244471     2.736357047    -0.169159157
 H        0.324487490     4.976220330    -0.163289212
 H       -3.648820982     3.355359413     0.169473394
 H       -2.752959258     1.094494818     0.166590972
 H       -3.421380816     5.671354815     0.089076542
 H       -0.551362338     6.808643044    -0.150760286
 H       -0.336437501     9.134598634    -0.233555997
 H       -1.249019612    11.389834140    -0.232865611
 H       -5.252591187     9.718226835     0.120875531
 H       -4.297812027     7.485666975     0.104374481
 H       -5.702543755    13.600512951    -1.532944726
 H       -4.980447446    10.671688238    -2.341325299
 H       -5.998484469     9.799951857    -4.210674466
 H       -7.522628930     9.952881962    -6.126031645
 H       -8.408908224    14.050890010    -5.060069495
 H       -6.979788776    13.837755005    -3.092705474
 H      -10.290783429    13.257554882    -7.992883947
 H       -8.915908316    14.200357894    -7.353599628
 H      -10.224012039    13.630605768    -6.260039504
 H       -6.201276619    11.796786454   -11.653737210
 H       -7.672974119    12.130506452   -12.591258580
 H       -7.714735389    10.923372280   -11.267698964
 H       -8.437509905    15.329364739    -9.786871950
 H      -10.767308936    16.132044537    -9.635610831
 H      -12.146371230    12.461756910   -11.417543579
 H       -9.840592593    11.646313235   -11.547091951
 H      -13.038867297    15.876068091    -9.962964896
 H      -14.000774279    13.205432879   -11.263251970
 H      -14.553136420    15.025070377   -13.420650462
 H      -15.487169996    15.122334890   -15.667185862
 H      -19.476887470    14.913875052   -14.065005219
 H      -18.590603244    14.805871062   -11.806695324
 H      -17.270601017    15.155994151   -17.169961586
 H      -20.124867486    14.999554489   -15.979597128
 H      -17.918588460    15.245712357   -19.084780500
 H      -18.804296583    15.346996201   -21.342322670
 H      -22.838950715    15.109144660   -19.728963491
 H      -21.908038157    15.028482208   -17.484041047
 H       -8.654744607    10.258896918    -7.852619695
 H       -9.278801733    11.558585850    -8.887061259
 H       -6.399328483    11.603289014    -7.743439927
 H       -6.793852736    10.754245399    -9.232432510
 H       -7.273243457    13.774708567    -8.728657913
 H       -5.852464225    13.098171477    -9.561773775
 H        2.266469834    -1.029624894     0.049843467
 H        2.273481300     0.551971207     0.867298145
 H        2.275408720     0.466240458    -0.915073834
 H      -20.784128399    14.594114595   -24.685375528
 H      -20.041466775    13.611184729   -23.398562144
 H      -19.446592253    15.261197166   -23.719712962
 H      -22.972922619    13.246994066   -22.218412426
 H      -23.954235427    14.698455380   -21.892117944
 H      -23.549841853    14.257179862   -23.568166226
 H      -21.067456926    17.722181024   -22.785804583
 H      -22.390164696    17.198174604   -23.860298009
 H      -22.711560475    17.517396113   -22.135898204
 H      -16.820329557    12.624022377   -10.141753375
 H      -16.325828667    13.501498210    -8.671796389
 H      -17.820474724    13.963511412    -9.524335255
 H      -15.310326374    17.264630014   -10.563068526
 H      -16.925689757    16.900720074    -9.912236201
 H      -15.476547253    16.545053766    -8.937332995
 H       -5.860682866    11.918494961     1.620658019
 H       -4.394491785    12.536794278     2.421940655
 H       -5.501109552    13.663065144     1.593333628
 H       -2.188659495    13.661607433    -1.111248614
 H       -3.203384277    14.764226903    -0.151365598
 H       -2.044928435    13.688421422     0.668396154
 H       -0.274921076    -0.367581208    -2.449270031
 H       -0.260299746    -1.918667943    -1.571135226
 H       -1.723572084    -0.900977010    -1.563187285
 H       -0.270171120    -0.365698020     2.449562777
 H       -1.713346973    -0.919737891     1.566707063
 H       -0.237724634    -1.918454845     1.574703992

