139   

Si        0.000000000     0.000000000     0.000000000
 C        1.869064489     0.000000000     0.000000000
 C       -0.660159362     1.723776907     0.000000000
 C        0.176274883     2.830662855     0.170623038
 C       -0.347606995     4.123701187     0.166739897
 C       -1.717151434     4.338982177    -0.005904405
 C       -2.554697639     3.227792028    -0.174836813
 C       -2.035032697     1.936451284    -0.170987767
 C       -2.311111616     5.671751769    -0.017147325
 C       -1.625770046     6.817874075     0.133619876
 C       -2.224561516     8.148807848     0.121634683
 C       -1.393151303     9.264278040     0.290420370
 C       -1.920291500    10.553326079     0.285895328
 C       -3.295703682    10.755798521     0.118932471
 C       -4.127967760     9.644472394    -0.049706970
 C       -3.595886301     8.355611548    -0.051449721
Si       -4.001565981    12.460773217     0.111836883
 C       -5.791085005    12.343318189     0.486163959
 C       -6.781943322    12.754129712    -0.316049524
 C       -8.204073087    12.645665753     0.013509466
 C       -9.153150868    13.111267907    -0.907860936
 C      -10.510528547    13.031735842    -0.644207726
 C      -10.970885995    12.519991790     0.589440759
 C      -10.017986736    12.052377336     1.515721867
 C       -8.663113274    12.097620880     1.214358661
 N      -12.346571481    12.443215331     0.847613875
 C      -13.229099217    13.431212101     0.204701375
 C      -12.759549394    12.051164597     2.202423790
 C      -12.893489805    14.902762500     0.501120611
 C      -13.402679750    15.402798819     1.863814312
 N      -14.847818964    15.682668711     1.936599712
 C      -15.394022154    16.537762679     0.966451470
 C      -14.633110427    17.631136407     0.496352798
 C      -15.153343819    18.486622558    -0.460398415
 C      -16.456217981    18.320908622    -0.952786155
 C      -17.217575923    17.256234667    -0.463860886
 C      -16.707230573    16.379191465     0.484902750
 C      -15.666461329    14.540792618     2.367239308
 C      -16.956741584    19.253900345    -1.963944301
 C      -18.181247444    19.190841360    -2.503159264
Si      -18.847969997    20.335211710    -3.768898790
 C      -20.344227719    21.157447744    -3.068971150
 C      -20.487350516    21.300244564    -1.684758070
 C      -21.615935697    21.920745628    -1.150425311
 C      -22.620254883    22.418070743    -1.985497700
 C      -22.471818359    22.277391154    -3.371852050
 C      -21.347571232    21.655186683    -3.909009065
 C      -23.818099432    23.074427571    -1.471493888
 C      -24.082372876    23.272592373    -0.168880673
 C      -25.280153990    23.928915539     0.345120371
 C      -26.286224096    24.423376916    -0.489414224
 C      -27.414890916    25.044080707     0.045114822
 C      -27.557859045    25.193119727     1.428621426
 C      -26.550345754    24.699324335     2.267113853
 C      -25.428499533    24.072245053     1.731006103
Si      -29.049874435    26.014020497     2.142247334
 C      -29.771814154    27.221872617     0.911399605
 C      -30.309519204    24.694062990     2.545228753
 C      -28.582646463    26.941776826     3.696719258
 C      -17.609574760    21.652471202    -4.234574687
 C      -19.304745054    19.328274437    -5.275151672
 C       -3.197204968    13.495807838     1.443598847
 C       -3.694344971    13.224300706    -1.564098489
 C       -0.608349589    -0.882347921    -1.531710274
 C       -0.622856365    -0.872687928     1.530641667
 H        1.255718187     2.725686918     0.309582376
 H        0.325527182     4.968644032     0.301034633
 H       -3.624921778     3.373401572    -0.310545581
 H       -2.737631353     1.109307214    -0.306295988
 H       -3.395688915     5.687016295    -0.162281715
 H       -0.541720759     6.804375337     0.278583202
 H       -0.322452356     9.124651840     0.426301986
 H       -1.223478124    11.384997027     0.420371388
 H       -5.210256852     9.744889207    -0.185756886
 H       -4.263871336     7.506759875    -0.187239254
 H       -6.004727024    11.891713146     1.468516474
 H       -6.599908453    13.209268104    -1.298787423
 H       -8.820491886    13.533664940    -1.857105814
 H      -11.218076197    13.366518218    -1.397464390
 H      -10.325625451    11.642575395     2.471828216
 H       -7.947954289    11.710771981     1.942745491
 H      -13.859415067    12.039943370     2.277735799
 H      -12.360260366    12.708441165     2.992549771
 H      -12.417228520    11.016799670     2.397531126
 H      -15.143967109    13.980374433     3.160442409
 H      -15.921876435    13.843276511     1.552810669
 H      -16.605740507    14.919523969     2.813815449
 H      -13.633478174    17.807203100     0.884057770
 H      -14.540837301    19.312653337    -0.824172500
 H      -18.235361529    17.104428165    -0.828098264
 H      -17.333980086    15.565233538     0.833425289
 H      -16.224437511    20.023363602    -2.242514887
 H      -18.894465156    18.405703804    -2.203487441
 H      -19.732538788    20.931077696    -0.982002769
 H      -21.706883145    22.015971718    -0.069734954
 H      -23.242785505    22.657504753    -4.039298132
 H      -21.287376901    21.572071072    -4.997448361
 H      -24.520241453    23.411236897    -2.239833866
 H      -23.379907755    22.935814779     0.599434258
 H      -26.196617499    24.325851244    -1.569946724
 H      -28.168699631    25.407787903    -0.658656440
 H      -26.607036695    24.787383570     3.355604431
 H      -24.657587679    23.692685159     2.399333361
 H      -13.182141607    13.253170952    -0.897453599
 H      -14.281094977    13.208599500     0.488832063
 H      -11.795152315    15.053194287     0.450368477
 H      -13.309414341    15.537191604    -0.308770318
 H      -13.136307181    14.678387528     2.664198974
 H      -12.869956468    16.347706110     2.132984527
 H        2.266630853    -1.029694544    -0.047021948
 H        2.276474321     0.468917958     0.913180617
 H        2.272547317     0.549627597    -0.869308601
 H      -30.621653409    27.776247487     1.347998799
 H      -30.142353361    26.711480760     0.005293017
 H      -29.019407757    27.965760233     0.592335904
 H      -30.604282533    24.130775942     1.641541462
 H      -29.909008916    23.963788844     3.271148089
 H      -31.225534087    25.130546654     2.980543151
 H      -27.780393271    27.675471932     3.497939745
 H      -29.445944381    27.496401664     4.105472726
 H      -28.222976298    26.261128588     4.487995092
 H      -17.319053078    22.259647331    -3.357716915
 H      -16.690471739    21.210357001    -4.658217802
 H      -18.025148446    22.344626251    -4.988851434
 H      -20.105997696    18.602620220    -5.046328260
 H      -19.659923032    19.968586876    -6.101119226
 H      -18.436337083    18.755652951    -5.648607659
 H       -3.293185926    13.019549566     2.436048172
 H       -2.121234853    13.645747033     1.248386825
 H       -3.666317448    14.494315586     1.508528756
 H       -4.164126932    12.629453112    -2.368707387
 H       -4.101137476    14.249418341    -1.621277151
 H       -2.613839306    13.280989408    -1.787281344
 H       -0.275489701    -0.363805192    -2.449314491
 H       -0.226494261    -1.917467733    -1.577143145
 H       -1.710897593    -0.932571423    -1.562699293
 H       -0.276539209    -0.365332971     2.449384959
 H       -1.726704627    -0.893840777     1.562941805
 H       -0.267027038    -1.917091982     1.571924084

