139   

Si        0.000000000     0.000000000     0.000000000
 C        1.869512694     0.000000000     0.000000000
 C       -0.636812671     1.732737658     0.000000000
 C        0.077254712     2.756173252     0.632700856
 C       -0.405733394     4.064354343     0.631419602
 C       -1.613181589     4.379675188     0.002112328
 C       -2.328664613     3.352839800    -0.627530094
 C       -1.849061810     2.045396811    -0.627648071
 C       -2.158384589     5.732826150    -0.025508971
 C       -1.576626982     6.805705087     0.537200405
 C       -2.126235534     8.157384010     0.506727339
 C       -1.415516903     9.189143116     1.135072833
 C       -1.901445105    10.494006597     1.131393644
 C       -3.115063192    10.796947862     0.501450987
 C       -3.826116669     9.769592548    -0.126457243
 C       -3.334260824     8.464622623    -0.125114847
Si       -3.759314532    12.526581483     0.496494281
 C       -5.521862737    12.487970587     0.001117486
 C       -6.042725666    13.105919029    -1.067274996
 C       -7.458207036    13.054859177    -1.435730456
 C       -7.887618946    13.743860685    -2.579576693
 C       -9.215363569    13.727715423    -2.971706743
 C      -10.181140273    13.044763162    -2.198004827
 C       -9.750454992    12.350879812    -1.049596147
 C       -8.407961122    12.344656747    -0.695780644
 N      -11.518346484    13.038730774    -2.609065277
 C      -12.046935013    14.241556205    -3.270379623
 C      -12.489413456    12.318937509    -1.776516707
 C      -11.830303592    15.562617082    -2.508887224
 C      -12.803019551    15.792183735    -1.338516437
 N      -14.221716158    15.994646565    -1.695137460
 C      -14.978784335    14.806334769    -1.852290932
 C      -15.107791133    13.968408203    -0.725626685
 C      -15.834218437    12.792720470    -0.812033341
 C      -16.482359777    12.430624293    -2.003385416
 C      -16.376102099    13.279228813    -3.107222054
 C      -15.645394773    14.460887215    -3.037235806
 C      -14.430758756    17.034163416    -2.714322399
 C      -17.236640756    11.175907786    -2.038033959
 C      -17.896773045    10.720331138    -3.110651572
Si      -18.842168926     9.150574846    -3.158738491
 C      -18.737518162     8.315753127    -1.517308721
 C      -18.076345314     7.093924903    -1.354071950
 C      -18.013577338     6.486690652    -0.101269643
 C      -18.601749057     7.089153402     1.017978255
 C      -19.258382782     8.312747348     0.852412324
 C      -19.326456397     8.920463892    -0.399710803
 C      -18.509576756     6.414663337     2.308687504
 C      -19.032500841     6.882112453     3.455025800
 C      -18.940294462     6.207538986     4.745793810
 C      -18.284287836     4.984655720     4.912356007
 C      -18.220289996     4.375001362     6.164864185
 C      -18.805495011     4.980017891     7.282477324
 C      -19.463203671     6.205421320     7.118055967
 C      -19.532061819     6.808436510     5.864486157
Si      -18.720185277     4.171854005     8.940671839
 C      -17.140770742     3.182728550     9.088430070
 C      -18.751629255     5.467320708    10.288124019
 C      -20.195260641     3.038867476     9.117940772
 C      -20.630877800     9.526662678    -3.544143598
 C      -18.124845518     8.072440512    -4.504966759
 C       -3.654104269    13.248367960     2.216912199
 C       -2.731358812    13.541353355    -0.686922891
 C       -0.602308966    -0.904601241    -1.521414216
 C       -0.632414165    -0.856906294     1.535538742
 H        1.028057981     2.572025432     1.140470005
 H        0.169715593     4.842641305     1.129722599
 H       -3.271811130     3.576271761    -1.123086380
 H       -2.451967405     1.287438778    -1.135270581
 H       -3.111554763     5.830247800    -0.554239464
 H       -0.624008077     6.710216920     1.066228621
 H       -0.472175471     8.970745549     1.631693073
 H       -1.303758781    11.257462099     1.636635206
 H       -4.778231714     9.950371095    -0.637126126
 H       -3.905195242     7.682814004    -0.623051369
 H       -6.156467417    11.896289528     0.680471371
 H       -5.436956187    13.704594849    -1.760384284
 H       -7.162567358    14.293376462    -3.180797522
 H       -9.510864797    14.241069332    -3.881608420
 H      -10.459308985    11.812657581    -0.428725641
 H       -8.098740510    11.786848401     0.190000218
 H      -13.480846899    12.317582095    -2.267470743
 H      -12.611090827    12.746765028    -0.768038963
 H      -12.181167163    11.261079853    -1.684609397
 H      -13.909546204    17.954578012    -2.397161703
 H      -15.508003913    17.273933950    -2.768881494
 H      -14.079024705    16.764085629    -3.722132028
 H      -14.641953438    14.258001822     0.214516075
 H      -15.917893221    12.148446450     0.064638230
 H      -16.873506834    13.020466746    -4.042676733
 H      -15.585810590    15.099417438    -3.913335908
 H      -17.209175218    10.629818615    -1.083135398
 H      -17.908935737    11.281522433    -4.057465345
 H      -17.595191844     6.578207580    -2.189755089
 H      -17.498703431     5.533528732     0.005156285
 H      -19.725028916     8.801560622     1.705915860
 H      -19.855340275     9.876515133    -0.467403671
 H      -17.967564464     5.464434763     2.290702773
 H      -19.575643847     7.831763885     3.473069089
 H      -17.816375918     4.495292564     4.059868133
 H      -17.695167511     3.417953319     6.231234648
 H      -19.938874702     6.725067542     7.954459065
 H      -20.050474575     7.759474440     5.756518121
 H      -11.560528835    14.310252952    -4.273544189
 H      -13.131166467    14.089265445    -3.476803385
 H      -10.793086348    15.597096397    -2.112536154
 H      -11.892670244    16.404693846    -3.223136690
 H      -12.725144659    14.946128020    -0.619377157
 H      -12.486469739    16.703496087    -0.775886082
 H        2.268029403    -1.027948914    -0.067082388
 H        2.279981471     0.453762435     0.918916253
 H        2.269350130     0.567812159    -0.859678976
 H      -17.032654423     2.751768903    10.099748623
 H      -16.253982126     3.815081628     8.900782346
 H      -17.112009302     2.345930701     8.368883303
 H      -17.938450910     6.203695217    10.154811707
 H      -19.706029803     6.022141537    10.300893740
 H      -18.623233816     5.009239479    11.285096122
 H      -20.203928633     2.263024373     8.331342020
 H      -20.192364639     2.524291504    10.094904045
 H      -21.144651411     3.598296680     9.037307686
 H      -21.071931049    10.211333855    -2.797471242
 H      -20.739577099    10.001784284    -4.535025085
 H      -21.239381201     8.604018149    -3.547240337
 H      -17.047947514     7.884739135    -4.341906501
 H      -18.635276034     7.093958551    -4.552009073
 H      -18.227734571     8.547346088    -5.497188211
 H       -4.204635177    12.628373057     2.947447918
 H       -2.608900707    13.322196252     2.563788657
 H       -4.089750379    14.263358542     2.249883644
 H       -2.776989926    13.130416865    -1.712185432
 H       -3.079624365    14.588533524    -0.727680928
 H       -1.668389006    13.554135593    -0.386825237
 H       -0.315875294    -0.369529790    -2.444907357
 H       -0.170559194    -1.919695429    -1.578644746
 H       -1.700965283    -1.013186632    -1.525781043
 H       -0.287265534    -0.346057200     2.452383429
 H       -1.736908978    -0.869435149     1.562496828
 H       -0.284768126    -1.903672709     1.584837735

