139   

Si        0.000000000     0.000000000     0.000000000
 C        1.869390245     0.000000000     0.000000000
 C       -0.646660619     1.729224944     0.000000000
 C        0.171278027     2.809360984     0.345987855
 C       -0.331226457     4.110469515     0.341473608
 C       -1.662423180     4.361094692    -0.001887479
 C       -2.482005529     3.277057327    -0.343690480
 C       -1.982697064     1.977278783    -0.341876990
 C       -2.230726609     5.705203739    -0.020199395
 C       -1.553005383     6.825011802     0.283947810
 C       -2.117972634     8.170395290     0.266693679
 C       -3.448992546     8.425078289    -0.076197608
 C       -3.947313166     9.727428521    -0.079422271
 C       -3.119639370    10.804791771     0.253283035
 C       -1.785537210    10.553671959     0.596834874
 C       -1.293399274     9.250966983     0.606240026
Si       -3.770036638    12.532043796     0.251847526
 C       -2.354852632    13.675698748     0.045851256
 C       -1.988682731    14.627362414     0.914706678
 C       -0.849634552    15.524907959     0.716623995
 C       -0.562036228    16.484951953     1.697993509
 C        0.504095006    17.357502250     1.558240891
 C        1.361010498    17.264860353     0.438157012
 C        1.074149400    16.299676936    -0.547203245
 C       -0.026534670    15.464471346    -0.411462003
 N        2.433886308    18.155828516     0.313891251
 C        3.134857209    18.567489195     1.540686663
 C        3.294238931    18.027133424    -0.868931065
 C        3.581378235    17.421993658     2.468286435
 C        4.830575414    16.662450904     1.988448589
 N        6.097844295    17.420064579     1.992486791
 C        6.353116196    18.177131389     0.821991512
 C        6.471300914    17.470234627    -0.392200842
 C        6.720511278    18.150451570    -1.572332916
 C        6.896773059    19.543175610    -1.579307757
 C        6.808168432    20.234590130    -0.369178883
 C        6.550989490    19.565886178     0.823222680
 C        6.384812282    18.086606891     3.271370217
 C        7.157792348    20.209974782    -2.856809102
 C        7.343233402    21.529084953    -2.996838995
Si        7.670496874    22.373836518    -4.590635803
 C        7.705065295    21.139494993    -5.960731133
 C        8.657846025    20.113063699    -5.937223868
 C        8.705790748    19.167555656    -6.959707250
 C        7.802157082    19.221689210    -8.025503758
 C        6.849142760    20.247747360    -8.045471280
 C        6.800138257    21.196315307    -7.025786277
 C        7.814432971    18.254127779    -9.117747396
 C        8.672794271    17.225263611    -9.219635701
 C        8.683566527    16.258563934   -10.312777575
 C        7.780924151    16.316110031   -11.378325165
 C        7.826468517    15.371298478   -12.402824886
 C        8.782406228    14.349806923   -12.388001339
 C        9.688128262    14.290341721   -11.321407786
 C        9.636202589    15.231473238   -10.295992982
Si        8.843792848    13.098002121   -13.744094900
 C        8.229159822    13.852470602   -15.340240045
 C       10.600363448    12.507805284   -13.990679874
 C        7.753558298    11.658470476   -13.264641815
 C        6.327525198    23.642407928    -4.866952878
 C        9.330500852    23.225339738    -4.498230228
 C       -4.931849171    12.782843132    -1.190019624
 C       -4.674161137    12.828737303     1.858294347
 C       -0.605689414    -0.888754647    -1.529181882
 C       -0.629651657    -0.864753286     1.532001312
 H        1.220392080     2.677064119     0.624428610
 H        0.327663357     4.934079486     0.611162911
 H       -3.522090839     3.450048589    -0.614157331
 H       -2.669370332     1.172225653    -0.617737850
 H       -3.285052039     5.752462911    -0.307796014
 H       -0.498340666     6.776602549     0.571627272
 H       -4.110243712     7.603319023    -0.344181787
 H       -4.996548214     9.864644457    -0.354287933
 H       -1.094366926    11.359904450     0.865223583
 H       -0.254395776     9.074035377     0.878204608
 H       -1.800077746    13.520796154    -0.893919284
 H       -2.523067415    14.807835656     1.856803745
 H       -1.196775476    16.558221768     2.581574826
 H        0.676838411    18.117749731     2.313939947
 H        1.705202195    16.197466541    -1.424177616
 H       -0.235828712    14.736116944    -1.196981901
 H        4.048489847    18.836161047    -0.878494179
 H        2.682186603    18.154577060    -1.780922635
 H        3.829208495    17.065229681    -0.926162386
 H        6.307961967    17.344464389     4.085352391
 H        5.719059043    18.931876595     3.505531083
 H        7.427977229    18.450993794     3.262135968
 H        6.376567523    16.385950882    -0.392992613
 H        6.799193926    17.592153138    -2.506534436
 H        6.944034830    21.316583522    -0.349284679
 H        6.490284070    20.133345111     1.746872068
 H        7.183783445    19.513907713    -3.708406345
 H        7.308406293    22.207324975    -2.130335728
 H        9.391081170    20.019249754    -5.129664946
 H        9.457706906    18.381272433    -6.921336978
 H        6.136323237    20.308307311    -8.865853244
 H        6.033763457    21.973162985    -7.095194340
 H        7.051356034    18.420662189    -9.883981957
 H        9.436275799    17.058564123    -8.453890691
 H        7.030092484    17.103533426   -11.416225302
 H        7.092979424    15.468049853   -13.208230543
 H       10.457069745    13.515541085   -11.256307549
 H       10.347836506    15.166882842    -9.474801339
 H        4.011809562    19.194833782     1.259304458
 H        2.448044737    19.247446295     2.100603985
 H        3.749761132    17.825739504     3.483982273
 H        2.752518820    16.691215802     2.582966884
 H        4.993059866    15.775523511     2.647595885
 H        4.649732731    16.256694133     0.968088278
 H        2.267612045    -1.028277574    -0.066841794
 H        2.278286975     0.451809726     0.920886590
 H        2.270982015     0.566671177    -0.859355186
 H        8.328425949    13.143239492   -16.181258031
 H        8.804352754    14.759269966   -15.601568452
 H        7.164986076    14.139277526   -15.275237509
 H       11.282762057    13.354341078   -14.188395503
 H       10.981424175    11.972064460   -13.103775674
 H       10.672310375    11.816682101   -14.849381166
 H        6.707845757    11.979839664   -13.109198546
 H        7.750572179    10.878033643   -14.045768156
 H        8.096009690    11.189424764   -12.324688972
 H        5.327765292    23.171702651    -4.894650434
 H        6.313352157    24.394797277    -4.057972537
 H        6.472614004    24.183425385    -5.818976745
 H       10.143385606    22.505291967    -4.293386969
 H        9.570647860    23.732512073    -5.450467004
 H        9.351751586    23.986999145    -3.699084926
 H       -4.444356298    12.528302312    -2.148501663
 H       -5.836189975    12.156858341    -1.098806587
 H       -5.261019449    13.835969235    -1.255812495
 H       -4.005792642    12.690185553     2.727595332
 H       -5.082727549    13.853723346     1.907259143
 H       -5.518561048    12.126767895     1.979157505
 H       -0.293453262    -0.359599582    -2.447939704
 H       -0.200984734    -1.914912441    -1.582488235
 H       -1.706840382    -0.965151008    -1.549089213
 H       -0.281378644    -0.357993598     2.450258166
 H       -1.733858205    -0.877438523     1.562561885
 H       -0.281707819    -1.911675570     1.575885346

