139   

Si        0.000000000     0.000000000     0.000000000
 C        1.869302614     0.000000000     0.000000000
 C       -0.648217844     1.728589444     0.000000000
 C        0.116498673     2.785882791    -0.503685313
 C       -0.382579775     4.088307198    -0.499056323
 C       -1.659220811     4.362144619    -0.000939166
 C       -2.426352731     3.300826946     0.497666931
 C       -1.929255630     2.000219818     0.497815144
 C       -2.224473089     5.707195181     0.024987849
 C       -1.597957624     6.811144156    -0.416397421
 C       -2.168831605     8.154091202    -0.387750653
 C       -1.407317735     9.222177657    -0.880711125
 C       -1.911501944    10.520448704    -0.873255304
 C       -3.195638124    10.778984241    -0.378898134
 C       -3.958605554     9.714684075     0.112873630
 C       -3.447828702     8.417357924     0.110480806
Si       -3.875070008    12.494779231    -0.363589210
 C       -5.702341177    12.378668899    -0.298850435
 C       -6.482135444    12.877126767     0.669431262
 C       -7.941793600    12.763921479     0.686036248
 C       -8.655606131    13.325901731     1.753819473
 C      -10.037380308    13.245455864     1.815401597
 C      -10.766238804    12.632951467     0.773331345
 C      -10.049546929    12.068034779    -0.299009911
 C       -8.661830449    12.117059779    -0.322066956
 N      -12.169403484    12.556002520     0.844805701
 C      -12.868689890    13.654047626     1.535261015
 C      -12.874890685    12.110824345    -0.369401270
 C      -12.716986123    15.006778768     0.821202078
 C      -13.477422311    16.106105731     1.580456356
 N      -13.579737935    17.367301850     0.825290328
 C      -14.313236027    17.341936873    -0.374671375
 C      -15.361655089    16.413739091    -0.552322587
 C      -16.085125827    16.387588882    -1.733928817
 C      -15.834030958    17.308198336    -2.760534731
 C      -14.816751340    18.248110351    -2.570757781
 C      -14.070268393    18.276445790    -1.400507921
 C      -12.317683881    18.127351721     0.816275195
 C      -16.628093312    17.235579827    -3.988215506
 C      -16.476023293    18.061010263    -5.032179318
Si      -17.450054504    18.000234440    -6.582712294
 C      -18.324828739    19.612258104    -6.783517348
 C      -18.563581156    20.431314419    -5.675078789
 C      -19.224528990    21.649932239    -5.824863792
 C      -19.667958820    22.072061051    -7.081248676
 C      -19.431727344    21.246909944    -8.189014040
 C      -18.768954767    20.030740537    -8.043740635
 C      -20.363548390    23.338618711    -7.285450150
 C      -20.651553140    24.218341501    -6.311185367
 C      -21.347100081    25.485015362    -6.514796746
 C      -21.788169915    25.909996769    -7.771108487
 C      -22.449149825    27.128785253    -7.919706960
 C      -22.691958976    27.947326751    -6.811282264
 C      -22.251933564    27.523041817    -5.551239674
 C      -21.585404243    26.308726743    -5.406840291
Si      -23.567098740    29.561256511    -7.007244826
 C      -24.774659739    29.465258260    -8.431289686
 C      -24.506720620    29.974164302    -5.444572698
 C      -22.291986112    30.884169042    -7.346962954
 C      -16.263183760    17.730375266    -8.000410931
 C      -18.722902556    16.634712240    -6.548030222
 C       -3.183152267    13.396739578     1.117208415
 C       -3.406381784    13.390236078    -1.934898516
 C       -0.629014800    -0.860217626    -1.535035673
 C       -0.602554906    -0.900307136     1.523869678
 H        1.120980116     2.633860782    -0.908097656
 H        0.235058654     4.894308262    -0.891292074
 H       -3.423408785     3.492261631     0.890514918
 H       -2.573394827     1.214141979     0.901532199
 H       -3.233727543     5.769778523     0.443342854
 H       -0.589252120     6.750593139    -0.834890397
 H       -0.409411421     9.038153781    -1.273928690
 H       -1.271798636    11.313942813    -1.268562300
 H       -4.968678672     9.859483118     0.511504951
 H       -4.060012822     7.606120565     0.500815452
 H       -6.137046609    11.845327734    -1.160143529
 H       -6.080181689    13.415316282     1.537829029
 H       -8.116307485    13.826500700     2.558739604
 H      -10.554349460    13.663045115     2.674457483
 H      -10.567833182    11.580000793    -1.118400234
 H       -8.131994324    11.655179050    -1.157343110
 H      -13.964082617    12.111943927    -0.195158406
 H      -12.588430485    11.066749822    -0.591546145
 H      -12.666554256    12.735794671    -1.253636978
 H      -11.811262720    18.034162842     1.791553677
 H      -12.541998186    19.200336568     0.675253234
 H      -11.616696501    17.801199343     0.030122594
 H      -15.606834539    15.703916911     0.232004057
 H      -16.874208956    15.644935610    -1.856801276
 H      -14.600399922    18.978778134    -3.352433282
 H      -13.292050170    19.025871633    -1.294789880
 H      -17.374102977    16.429935526    -3.972914478
 H      -15.717610536    18.860514410    -5.019809770
 H      -18.241425108    20.151157230    -4.666294913
 H      -19.394506598    22.272177538    -4.947810463
 H      -19.769020714    21.557456451    -9.175997845
 H      -18.611364779    19.430170479    -8.943556863
 H      -20.650595857    23.541058039    -8.321496816
 H      -20.364943131    24.015785830    -5.274877420
 H      -21.616805558    25.289295592    -8.648801933
 H      -22.767909770    27.407620078    -8.927897773
 H      -22.414036597    28.119816768    -4.649361313
 H      -21.249360521    25.997447824    -4.419330491
 H      -13.944543198    13.377724429     1.622689929
 H      -12.491103484    13.716237701     2.581033507
 H      -11.646704720    15.272198611     0.726191961
 H      -13.092822364    14.932287944    -0.218551563
 H      -14.506714247    15.768914045     1.841717294
 H      -12.980427712    16.320997200     2.553784132
 H        2.267405013    -1.028795021     0.057663252
 H        2.270085621     0.559635262     0.864519728
 H        2.279067805     0.460824717    -0.915843798
 H      -25.354460749    30.400479363    -8.526988241
 H      -25.496299845    28.640613571    -8.288115291
 H      -24.261119826    29.295801546    -9.393759820
 H      -25.206067748    29.163048554    -5.172098600
 H      -23.828410736    30.132362561    -4.588020796
 H      -25.101988123    30.896329434    -5.568649494
 H      -21.723492817    30.667998255    -8.269357431
 H      -22.762981046    31.875315106    -7.468780711
 H      -21.561328841    30.959963476    -6.521560065
 H      -15.546715160    18.566891833    -8.090721367
 H      -15.675663050    16.805471049    -7.855958728
 H      -16.793457000    17.640307691    -8.964240355
 H      -19.436506865    16.770642128    -5.714864225
 H      -19.311647160    16.612053414    -7.482635733
 H      -18.249542331    15.644205302    -6.427978428
 H       -3.447983726    12.884189454     2.060118209
 H       -2.080623054    13.452667230     1.073457395
 H       -3.567607618    14.430344928     1.176298694
 H       -3.729675078    12.828989749    -2.830214083
 H       -3.880968261    14.387363138    -1.980153127
 H       -2.315056908    13.537605277    -2.009931841
 H       -0.283858735    -0.349727660    -2.452192060
 H       -0.279143417    -1.906308905    -1.582637805
 H       -1.733383703    -0.874914954    -1.563976453
 H       -0.310610087    -0.365195694     2.445766883
 H       -1.701667227    -1.002617975     1.532107139
 H       -0.175629610    -1.917347181     1.581993375

