139   

Si        0.000000000     0.000000000     0.000000000
 C        1.869599836     0.000000000     0.000000000
 C       -0.618910482     1.739295567     0.000000000
 C        0.022063344     2.713074448    -0.774584433
 C       -0.436962445     4.029342745    -0.781922347
 C       -1.551253136     4.401829065    -0.024260366
 C       -2.194734204     3.424808587     0.746034684
 C       -1.735866621     2.109502822     0.758355433
 C       -2.066739842     5.766991234    -0.001454823
 C       -1.540432585     6.794175482    -0.689839625
 C       -2.054445406     8.159691032    -0.668268684
 C       -3.167759656     8.534679009     0.087952437
 C       -3.625155002     9.852761877     0.078857672
 C       -2.979730893    10.823405497    -0.692030072
 C       -1.862685100    10.450216701    -1.452780509
 C       -1.406627833     9.135338497    -1.438677926
Si       -3.553450770    12.576844566    -0.731164893
 C       -2.240518330    13.679311643    -0.086847286
 C       -1.041839745    13.268002712     0.347629772
 C        0.000718175    14.157668734     0.860805425
 C        1.216116120    13.600228628     1.286116259
 C        2.235418244    14.396707002     1.779890466
 C        2.053461645    15.790942463     1.910352151
 C        0.834731699    16.350961884     1.484898045
 C       -0.160452094    15.542293813     0.950110846
 N        3.103601070    16.579696120     2.414537113
 C        3.898432925    15.999687836     3.512108216
 C        2.836058201    18.015756823     2.591003022
 C        3.055494068    15.556261254     4.726037406
 C        3.871580069    15.586253817     6.031670147
 N        3.644079262    16.787277773     6.870580147
 C        3.871621539    18.006644670     6.172683984
 C        5.189891505    18.274763977     5.754248530
 C        5.477453856    19.444522870     5.070270710
 C        4.475713101    20.392412634     4.808969580
 C        3.175822851    20.131233274     5.247888866
 C        2.871460975    18.958261619     5.930722760
 C        2.376785853    16.713091423     7.619868952
 C        4.830626273    21.613875070     4.081796404
 C        3.955009977    22.580970521     3.780462590
Si        4.338235190    24.127859089     2.875270093
 C        3.292394709    24.133809530     1.354588817
 C        2.837071512    22.923930927     0.815499708
 C        2.047482197    22.916191526    -0.331344709
 C        1.700262233    24.113716417    -0.970363197
 C        2.160529080    25.318812443    -0.431678027
 C        2.949391710    25.330622301     0.718375255
 C        0.870663633    24.053300507    -2.169455146
 C        0.465018290    25.122948273    -2.874528261
 C       -0.364645851    25.060825551    -4.073531051
 C       -0.823930868    23.854138706    -4.610617497
 C       -1.614557264    23.840622293    -5.758139944
 C       -1.964301887    25.036870717    -6.396826785
 C       -1.505476668    26.245389941    -5.861580145
 C       -0.715129516    26.255857894    -4.713937247
Si       -3.012948517    24.985905856    -7.915240515
 C       -4.632595496    24.151879356    -7.497829577
 C       -3.353854960    26.711836987    -8.546471035
 C       -2.111322525    24.013779236    -9.232393641
 C        3.906817576    25.572452468     3.976390716
 C        6.132867188    24.215843028     2.373161320
 C       -3.936294458    13.048363117    -2.498481569
 C       -5.081233697    12.802031946     0.321217657
 C       -0.635146988    -0.848448042    -1.538977659
 C       -0.607541049    -0.910303779     1.515567242
 H        0.895916213     2.482480862    -1.390438042
 H        0.082537154     4.769065467    -1.388573477
 H       -3.064456758     3.692679381     1.343332441
 H       -2.277605540     1.391767442     1.380462794
 H       -2.944365850     5.913884908     0.635089807
 H       -0.663450617     6.645935322    -1.326924209
 H       -3.689476571     7.796853884     0.694632413
 H       -4.499125991    10.086505813     0.692923294
 H       -1.318290997    11.167738937    -2.075208093
 H       -0.537433060     8.863779628    -2.034923160
 H       -2.514935543    14.745223139    -0.080149898
 H       -0.746088384    12.208419789     0.355692351
 H        1.367056783    12.522008424     1.216943439
 H        3.179164486    13.941676110     2.066854168
 H        0.655252750    17.418446796     1.565024690
 H       -1.089933508    16.003222816     0.613346098
 H        3.755296830    18.527540670     2.932982659
 H        2.041456678    18.232240533     3.323357148
 H        2.566965610    18.460966102     1.616615943
 H        2.415033290    15.832143851     8.285126267
 H        1.477599853    16.632615609     6.989515044
 H        2.280383662    17.600752708     8.269132222
 H        5.979888868    17.561389473     5.981050447
 H        6.500028430    19.635813872     4.743809742
 H        2.380545205    20.855090117     5.061911313
 H        1.849593805    18.784346454     6.256054461
 H        5.891430178    21.662746562     3.804552608
 H        2.895779675    22.502953303     4.078097411
 H        3.079396469    21.957274801     1.270148013
 H        1.699512566    21.966637347    -0.735046970
 H        1.905091126    26.262983737    -0.909399221
 H        3.278994828    26.302962751     1.094291117
 H        0.584867438    23.042660383    -2.476532571
 H        0.751268922    26.133478571    -2.568208841
 H       -0.565077530    22.910571208    -4.133128059
 H       -1.944628548    22.866432064    -6.130308437
 H       -1.746363408    27.209623146    -6.317307251
 H       -0.367949181    27.206598707    -4.313312462
 H        4.474186430    15.137548110     3.105777453
 H        4.661498823    16.751413268     3.821270261
 H        2.162629909    16.204358353     4.818370380
 H        2.650666840    14.542656817     4.548163805
 H        3.639702520    14.690504379     6.649968870
 H        4.962352714    15.527861802     5.818342712
 H        2.269657064    -1.027838449     0.056740434
 H        2.268753526     0.560306106     0.865027036
 H        2.279200961     0.464463152    -0.913944343
 H       -5.304820157    24.118102967    -8.373152108
 H       -5.162890855    24.689726501    -6.690910495
 H       -4.478156546    23.113362862    -7.155407547
 H       -3.876872941    27.324325059    -7.790548884
 H       -2.420163742    27.236242906    -8.817345210
 H       -3.991228523    26.686935109    -9.448526158
 H       -1.901616738    22.980848287    -8.902728183
 H       -2.701947641    23.953947225   -10.163387458
 H       -1.142243990    24.483203223    -9.481948678
 H        2.829035887    25.586728484     4.220507842
 H        4.461982402    25.525610725     4.931180393
 H        4.152303923    26.536372695     3.496966925
 H        6.411897262    23.365471312     1.724176204
 H        6.346252255    25.141408272     1.808179660
 H        6.800587410    24.201567004     3.253017921
 H       -3.042855766    12.961599714    -3.142656335
 H       -4.717153121    12.393413333    -2.924995542
 H       -4.296835162    14.089518480    -2.569782545
 H       -4.881218963    12.554464031     1.379544452
 H       -5.438203536    13.846984725     0.290493753
 H       -5.909089990    12.158986519    -0.025894662
 H       -0.295190245    -0.330730558    -2.453870115
 H       -0.284880867    -1.893982118    -1.596352820
 H       -1.739814274    -0.864294993    -1.561669116
 H       -0.305245510    -0.391646173     2.443272290
 H       -1.708039383    -0.999801464     1.524848945
 H       -0.193786550    -1.933631559     1.558523907

