139   

Si        0.000000000     0.000000000     0.000000000
 C        1.869877785     0.000000000     0.000000000
 C       -0.630751750     1.734743688     0.000000000
 C        0.085563752     2.751135992     0.641528141
 C       -0.389222184     4.061790835     0.642572291
 C       -1.593780668     4.387146161     0.012723675
 C       -2.312290266     3.367158104    -0.624333354
 C       -1.838495609     2.057337685    -0.631014669
 C       -2.127724809     5.745015441    -0.010579450
 C       -1.534171572     6.808179892     0.557745609
 C       -2.063019848     8.167757443     0.537757432
 C       -1.330339115     9.177566981     1.175504241
 C       -1.791775032    10.489795381     1.184621000
 C       -3.004449930    10.823332455     0.567546164
 C       -3.738513368     9.818337210    -0.067395841
 C       -3.268153097     8.504529066    -0.084598013
Si       -3.562303164    12.578330431     0.613258915
 C       -5.318078683    12.744556488     0.122652962
 C       -5.738388802    13.470557058    -0.921409549
 C       -7.140231306    13.607111191    -1.318298400
 C       -7.447482945    14.399864434    -2.435362448
 C       -8.756058832    14.563559860    -2.854763894
 C       -9.810541989    13.963545213    -2.134706032
 C       -9.507372335    13.168853429    -1.018405898
 C       -8.183510706    12.980958819    -0.634676237
 N      -11.129988072    14.160729578    -2.604035175
 C      -11.503718971    15.571052108    -2.851753435
 C      -12.189934885    13.387338214    -1.937118570
 C      -10.958150283    16.599033904    -1.844841119
 C      -11.362076519    16.278653924    -0.395539845
 N      -10.911978798    17.291437005     0.573159573
 C       -9.524624319    17.428983318     0.779319550
 C       -8.684857758    16.296112917     0.745626095
 C       -7.319099767    16.421657324     0.947291820
 C       -6.739093501    17.667476528     1.228816219
 C       -7.577678351    18.783652675     1.290546562
 C       -8.946528337    18.676247411     1.081302036
 C      -11.700706127    18.533018634     0.501977050
 C       -5.291262218    17.764360911     1.436653790
 C       -4.662066196    18.915871404     1.709207515
Si       -2.873278803    19.173244171     1.988603886
 C       -1.922316276    17.598782655     1.856040337
 C       -1.845600747    16.737965188     2.957163753
 C       -1.131562300    15.543683003     2.875936447
 C       -0.460549220    15.191791153     1.701397975
 C       -0.532895066    16.057703113     0.602419128
 C       -1.257625527    17.244962716     0.676124056
 C        0.298542724    13.952273192     1.572111598
 C        0.446044631    13.038746456     2.546670550
 C        1.206601117    11.800459448     2.411751358
 C        1.864259816    11.445831143     1.230823304
 C        2.580394414    10.252296339     1.144760871
 C        2.637756732     9.376427857     2.233591403
 C        1.970291845     9.724782731     3.415010812
 C        1.263479719    10.921361880     3.501382293
Si        3.583108225     7.793485895     2.130355091
 C        4.881046725     7.895432930     0.790373522
 C        4.412128275     7.441698092     3.767512057
 C        2.369507726     6.431295239     1.722820323
 C       -2.257056709    20.398694723     0.716846247
 C       -2.641635335    19.894033717     3.698927495
 C       -3.428759136    13.229040566     2.358869282
 C       -2.473480237    13.549919269    -0.551205354
 C       -0.604669671    -0.905186125    -1.519909058
 C       -0.632870035    -0.853753802     1.537136972
 H        1.032410948     2.559090631     1.153438348
 H        0.190474082     4.835106093     1.145319703
 H       -3.252684730     3.597735155    -1.121619403
 H       -2.441951855     1.305374278    -1.146575446
 H       -3.078777949     5.854335649    -0.539243343
 H       -0.581725609     6.699131746     1.087091540
 H       -0.384829289     8.941740108     1.664821205
 H       -1.170660724    11.236282059     1.692464680
 H       -4.689519279    10.024688896    -0.566712760
 H       -3.854162289     7.738716171    -0.588757413
 H       -6.025489821    12.195667155     0.762828144
 H       -5.051696065    14.029413898    -1.572443741
 H       -6.644471382    14.890364531    -2.986836245
 H       -8.974919192    15.151862242    -3.742145355
 H      -10.293899733    12.691275359    -0.443127813
 H       -7.968502148    12.347212924     0.227203422
 H      -13.120568058    13.474763521    -2.524693784
 H      -12.398709747    13.699302880    -0.902235394
 H      -11.917158579    12.316303626    -1.938460326
 H      -12.764684340    18.294213351     0.339173342
 H      -11.373771174    19.219251924    -0.295805875
 H      -11.636535620    19.055938310     1.474132009
 H       -9.100197817    15.310704191     0.540599767
 H       -6.689079080    15.529918930     0.885408907
 H       -7.158698601    19.766988837     1.508992936
 H       -9.553597893    19.572932732     1.140552810
 H       -4.767676733    16.803244400     1.346778535
 H       -5.230775629    19.858553922     1.789520508
 H       -2.342738546    16.962736762     3.905710853
 H       -1.090203020    14.891019417     3.746305971
 H       -0.017446032    15.803065269    -0.321817678
 H       -1.283300751    17.878114755    -0.215055691
 H        0.767793478    13.802652411     0.594482768
 H       -0.012315822    13.189819150     3.528386786
 H        1.826436071    12.103875839     0.364250957
 H        3.080124173    10.033747871     0.196734133
 H        1.978781720     9.079390384     4.297699934
 H        0.751511029    11.174313650     4.428152338
 H      -11.125971409    15.825359397    -3.871963552
 H      -12.611008458    15.649311491    -2.908614871
 H       -9.850538651    16.650512255    -1.909379724
 H      -11.313655506    17.607107497    -2.126971718
 H      -12.467276909    16.182813295    -0.310669867
 H      -10.944451432    15.290923780    -0.087587099
 H        2.268533569    -1.028607106    -0.054229232
 H        2.280127844     0.465208627     0.913137219
 H        2.269015686     0.556926787    -0.867028892
 H        5.495677038     6.978083429     0.759317501
 H        5.566211564     8.745695995     0.958270381
 H        4.430010537     8.021698372    -0.209943569
 H        5.073345122     8.274668038     4.067886805
 H        3.677779722     7.293001777     4.578208886
 H        5.033340227     6.530075496     3.714367664
 H        1.870362876     6.622959310     0.754202244
 H        2.876422322     5.452775099     1.648826590
 H        1.586911584     6.348059297     2.498495457
 H       -2.469091479    20.057453938    -0.312039487
 H       -2.741193323    21.383401037     0.841847115
 H       -1.166592289    20.550776297     0.803826522
 H       -3.097818742    19.254395449     4.475360809
 H       -1.570079520    20.005053265     3.943094974
 H       -3.107322937    20.892002093     3.780185007
 H       -4.108837144    12.693221833     3.043680413
 H       -2.401217164    13.114656203     2.747830704
 H       -3.682657224    14.304779901     2.404034732
 H       -2.634313033    13.247670616    -1.600862491
 H       -2.666319581    14.635884181    -0.472230473
 H       -1.405122719    13.386164819    -0.321656100
 H       -0.313740400    -0.373722910    -2.444099647
 H       -0.178747321    -1.922843529    -1.574232871
 H       -1.703989375    -1.007278814    -1.525459186
 H       -0.286575485    -0.341677970     2.452825272
 H       -1.737428777    -0.864213811     1.564548037
 H       -0.287093293    -1.901005239     1.587999391

