139   

Si        0.000000000     0.000000000     0.000000000
 C        1.869058915     0.000000000     0.000000000
 C       -0.608601291     1.742872081     0.000000000
 C       -0.117288157     2.647414372    -0.949286667
 C       -0.562807075     3.967894257    -0.967616003
 C       -1.512063940     4.414796590    -0.043270995
 C       -2.004445447     3.507699053     0.903266671
 C       -1.559368791     2.187478450     0.925373200
 C       -2.006876743     5.787660181    -0.025477255
 C       -1.614673412     6.752066905    -0.875143151
 C       -2.107902701     8.125285626    -0.859339414
 C       -1.610307701     9.030051463    -1.807550831
 C       -2.050497135    10.349834605    -1.831807550
 C       -2.997510816    10.800379650    -0.900702593
 C       -3.494160996     9.900586819     0.045431699
 C       -3.055097054     8.576164261     0.063293553
Si       -3.556321735    12.556860686    -0.964856050
 C       -4.424888525    12.856507698    -2.550543265
 C       -4.605962390    11.920278724    -3.491714379
 C       -5.296307479    12.140792318    -4.762823825
 C       -5.412967716    11.066237333    -5.657384127
 C       -6.055923166    11.217088898    -6.874572516
 C       -6.552091435    12.478369495    -7.263588955
 C       -6.432666164    13.556853403    -6.372348160
 C       -5.834578220    13.376191750    -5.130265297
 N       -7.202463192    12.585976319    -8.516439428
 C       -6.460119790    12.043055118    -9.672599107
 C       -7.832087950    13.884456516    -8.812383251
 C       -5.153294829    12.788707034   -10.003992913
 C       -3.911476903    12.037396799    -9.482943905
 N       -2.719339808    12.887883742    -9.272369965
 C       -2.875474413    13.743772028    -8.132093358
 C       -2.612678383    13.162396138    -6.880773856
 C       -2.740011323    13.920921820    -5.727512543
 C       -3.118753780    15.270715366    -5.792394831
 C       -3.364302250    15.842266955    -7.042878482
 C       -3.237654504    15.092654544    -8.208504477
 C       -2.279782320    13.578640605   -10.497753542
 C       -3.238659052    16.027520283    -4.542418753
 C       -3.592014482    17.317682803    -4.484007150
Si       -3.759891454    18.318802863    -2.959400592
 C       -2.579950488    19.731279844    -3.071327249
 C       -1.401539033    19.603579833    -3.817307359
 C       -0.505551826    20.665742988    -3.906586314
 C       -0.760352816    21.876129952    -3.248156590
 C       -1.935589322    21.998124977    -2.501296383
 C       -2.836816686    20.937599109    -2.412550354
 C        0.209308967    22.959733890    -3.372358601
 C        0.085125706    24.167773603    -2.796900290
 C        1.055710023    25.250464123    -2.922028274
 C        2.230074621    25.127642257    -3.668715510
 C        3.130756685    26.189088596    -3.761261612
 C        2.875196555    27.397911429    -3.107693431
 C        1.697566633    27.524217342    -2.357900730
 C        0.800693228    26.463511848    -2.267533633
Si        4.046143860    28.821417337    -3.209915559
 C        5.526710477    28.389786364    -4.265872318
 C        3.153278704    30.278969350    -3.965763198
 C        4.623318623    29.247458871    -1.484030135
 C       -5.521959404    18.934529572    -2.873744749
 C       -3.364948675    17.325934673    -1.429256722
 C       -4.719245746    12.955734021     0.440222674
 C       -2.058142192    13.671148144    -0.879486074
 C       -0.637101965    -0.846856769    -1.539387616
 C       -0.611448983    -0.914428046     1.511155554
 H        0.624436489     2.356652055    -1.698673603
 H       -0.163108678     4.652438697    -1.713737687
 H       -2.744285623     3.834153262     1.632017052
 H       -1.979275670     1.525876111     1.687917078
 H       -2.747820299     5.996990229     0.751840513
 H       -0.873670881     6.541714337    -1.652065276
 H       -0.871635984     8.698065239    -2.534854207
 H       -1.628401004    11.009683827    -2.596953065
 H       -4.235442029    10.195147133     0.793416624
 H       -3.459670758     7.893782868     0.808718024
 H       -4.804833586    13.881408428    -2.678888912
 H       -4.242218149    10.887526402    -3.377086949
 H       -5.007649279    10.090751819    -5.385089753
 H       -6.182734800    10.359329133    -7.529861306
 H       -6.793127020    14.545116320    -6.640230741
 H       -5.762035103    14.227802986    -4.451100031
 H       -8.412631671    13.800863406    -9.746913006
 H       -7.119733852    14.717939633    -8.919048947
 H       -8.550374404    14.129969426    -8.009166413
 H       -1.998875151    12.815579611   -11.244196208
 H       -1.373847530    14.168484836   -10.272670861
 H       -3.028074513    14.246509562   -10.948521972
 H       -2.316053226    12.115608080    -6.828675794
 H       -2.550429354    13.455921155    -4.757949957
 H       -3.658133225    16.889589569    -7.117716978
 H       -3.430002546    15.558469859    -9.170134025
 H       -3.006616174    15.430452061    -3.649936560
 H       -3.818023426    17.886336502    -5.401564007
 H       -1.150707740    18.681361785    -4.352533156
 H        0.403253807    20.550641499    -4.494790116
 H       -2.157630974    22.927846676    -1.980633173
 H       -3.740035487    21.093027444    -1.816397423
 H        1.082424222    22.723015659    -3.987834352
 H       -0.787779568    24.404949138    -2.181577116
 H        2.453227280    24.196805966    -4.187262685
 H        4.032070692    26.032811964    -4.360285138
 H        1.445079550    28.445659534    -1.825592982
 H       -0.108823248    26.580163981    -1.680991709
 H       -6.262477965    10.963767307    -9.486752652
 H       -7.145878401    12.069592798   -10.550235134
 H       -5.070927516    12.939559887   -11.094324415
 H       -5.180732748    13.805647575    -9.564209099
 H       -4.142996831    11.540679539    -8.510731002
 H       -3.623479518    11.229666536   -10.190374681
 H        2.270012496    -1.028505048     0.030648820
 H        2.268552960     0.539428659     0.878207474
 H        2.277039971     0.489544082    -0.901697071
 H        6.232637896    29.237482648    -4.326972901
 H        5.227776429    28.134976097    -5.298251467
 H        6.081381718    27.528164235    -3.853346491
 H        2.805463389    30.047597093    -4.988996236
 H        2.266260593    30.563887108    -3.372866456
 H        3.810512143    31.164000779    -4.029946690
 H        5.133921812    28.389160520    -1.010443509
 H        5.333147425    30.093193870    -1.494407500
 H        3.778121428    29.528640928    -0.831253142
 H       -5.758110368    19.597906335    -3.725179471
 H       -6.241079169    18.095472319    -2.898860549
 H       -5.709320102    19.504365680    -1.947201608
 H       -2.334334892    16.927445085    -1.464680659
 H       -3.443483990    17.947026234    -0.518777046
 H       -4.058943357    16.474222692    -1.311736766
 H       -5.635046061    12.338670324     0.392881303
 H       -4.243658782    12.775961945     1.420646946
 H       -5.035920787    14.013679456     0.414996153
 H       -1.378899963    13.506052460    -1.735078335
 H       -2.344357618    14.738122494    -0.880571634
 H       -1.478482736    13.483351606     0.042334804
 H       -0.291117652    -0.335195585    -2.455066289
 H       -0.295469242    -1.895462648    -1.592802623
 H       -1.741959376    -0.854090041    -1.564196006
 H       -0.281604768    -0.420215605     2.442600864
 H       -1.714031970    -0.973299183     1.533355381
 H       -0.226289031    -1.949731308     1.532815780

