139   

Si        0.000000000     0.000000000     0.000000000
 C        1.869440377     0.000000000     0.000000000
 C       -0.640618750     1.731729371     0.000000000
 C        0.133440644     2.783936590    -0.500190859
 C       -0.356504818     4.089613410    -0.497208399
 C       -1.632108353     4.372872823    -0.001550627
 C       -2.408359177     3.316949946     0.494200972
 C       -1.921111009     2.012412222     0.493947644
 C       -2.185763218     5.722841022     0.021467585
 C       -1.546410404     6.819035459    -0.420822810
 C       -2.100602186     8.168686303    -0.397527614
 C       -1.323378919     9.224788260    -0.891906136
 C       -1.810171508    10.529583887    -0.890120430
 C       -3.088488786    10.807841647    -0.391796633
 C       -3.866071156     9.755824137     0.103666032
 C       -3.375417497     8.450835312     0.101098087
Si       -3.742980081    12.533865143    -0.384962859
 C       -5.565009285    12.418357626    -0.270283148
 C       -6.326720672    12.927014154     0.706512860
 C       -7.784811533    12.802806449     0.745297753
 C       -8.488088962    13.373429497     1.815583345
 C       -9.867979784    13.281376257     1.894804422
 C      -10.595727446    12.614496584     0.886894741
 C       -9.890699371    12.023745940    -0.173726417
 C       -8.504531293    12.098409588    -0.223057951
 N      -12.002776114    12.541059807     1.002354230
 C      -12.673288755    13.809021862     1.362755714
 C      -12.704140854    11.780759163    -0.044800516
 C      -12.222976660    15.045226731     0.562086149
 C      -12.940033343    15.178314912    -0.795278779
 N      -12.082870298    15.676482218    -1.892666086
 C      -11.145818553    14.714722169    -2.370385095
 C      -11.673559495    13.580318334    -3.016197244
 C      -10.823408367    12.602896141    -3.506846948
 C       -9.429912669    12.745347679    -3.415004188
 C       -8.912411756    13.887185837    -2.798736700
 C       -9.755826348    14.867720903    -2.284023519
 C      -11.533381676    17.015697665    -1.620129808
 C       -8.587814951    11.674907781    -3.953539364
 C       -7.248115983    11.669370117    -3.938430600
Si       -6.241773240    10.298548264    -4.629052732
 C       -7.382309025     9.013970628    -5.304146475
 C       -7.756732443     7.914367989    -4.521753438
 C       -8.617172706     6.945412511    -5.031281889
 C       -9.135207218     7.056969888    -6.328239528
 C       -8.766017821     8.159384525    -7.104221832
 C       -7.900126625     9.128302349    -6.598484843
 C      -10.033096336     6.015701219    -6.816995832
 C      -10.592988730     5.999107902    -8.038489738
 C      -11.490829047     4.957134384    -8.526116228
 C      -11.859373720     3.855146996    -7.749318708
 C      -12.720492673     2.882261547    -8.255356105
 C      -13.240374607     2.994583836    -9.549393010
 C      -12.873315640     4.098230802   -10.329441008
 C      -12.006793456     5.064548012    -9.824155551
Si      -14.380673080     1.706472915   -10.219758061
 C      -15.373410265     0.944807279    -8.830550419
 C      -15.557277080     2.471450846   -11.454918429
 C      -13.352395314     0.390136120   -11.057139615
 C       -5.146302240    10.973830163    -5.983197217
 C       -5.175435451     9.560192926    -3.287408359
 C       -3.004130791    13.460713187     1.055507070
 C       -3.320945317    13.390806859    -1.991475974
 C       -0.631137067    -0.858954795    -1.534563948
 C       -0.604564994    -0.897352056     1.524664678
 H        1.138234615     2.625307061    -0.901504010
 H        0.267893633     4.890952629    -0.888500945
 H       -3.404844295     3.515377751     0.884836632
 H       -2.572431401     1.230548869     0.894247726
 H       -3.195049112     5.796049262     0.437626756
 H       -0.537220999     6.745737817    -0.836570763
 H       -0.327743260     9.025748348    -1.283664502
 H       -1.159840062    11.312371448    -1.289348720
 H       -4.872443559     9.917226459     0.506317236
 H       -3.998516796     7.648829678     0.493036466
 H       -6.018708187    11.869297859    -1.113967525
 H       -5.913452196    13.481084564     1.558505190
 H       -7.944194689    13.900877306     2.599232290
 H      -10.390143601    13.714565419     2.743202752
 H      -10.414130317    11.511446623    -0.977522696
 H       -7.983472891    11.618491128    -1.056523295
 H      -13.780122099    11.734128135     0.190048083
 H      -12.329738402    10.740076719    -0.041922153
 H      -12.580486657    12.194521288    -1.060006280
 H      -12.372020363    17.710810714    -1.441784216
 H      -10.996420467    17.375478745    -2.515952033
 H      -10.852448327    17.064605595    -0.756453611
 H      -12.750409286    13.484618280    -3.136851053
 H      -11.245176123    11.721191098    -3.990937464
 H       -7.832796169    14.017969948    -2.708901568
 H       -9.322761330    15.734577777    -1.793397578
 H       -9.175867246    10.849399445    -4.383928735
 H       -6.671477533    12.502165264    -3.509416430
 H       -7.387140560     7.776006560    -3.500762195
 H       -8.890233983     6.093199576    -4.411889111
 H       -9.153758711     8.269701549    -8.115244347
 H       -7.646819970     9.967349348    -7.253088675
 H      -10.233363999     5.212041718    -6.102075547
 H      -10.391848873     6.801300093    -8.754730673
 H      -11.472629994     3.746425876    -6.737523091
 H      -12.969565316     2.042348413    -7.600855495
 H      -13.247904554     4.239239168   -11.347048488
 H      -11.731108444     5.913530623   -10.447181778
 H      -13.772923739    13.671875322     1.278402542
 H      -12.474273512    13.979354672     2.448125494
 H      -12.389702407    15.955229252     1.165897557
 H      -11.124367903    15.003303853     0.403653593
 H      -13.370907866    14.201778351    -1.107273680
 H      -13.801865657    15.877568421    -0.708419676
 H        2.267913649    -1.027961409     0.069131728
 H        2.269953067     0.569202101     0.858364977
 H        2.279167940     0.450521225    -0.920974440
 H      -16.109388486     0.218027442    -9.217971905
 H      -15.932027953     1.715495680    -8.269124001
 H      -14.728834979     0.409622405    -8.111559675
 H      -16.119912871     3.309423366   -11.004971077
 H      -15.025640835     2.863117928   -12.339678042
 H      -16.294751526     1.731808530   -11.814198201
 H      -12.645365613    -0.078593831   -10.349101610
 H      -13.986626718    -0.410773245   -11.475788440
 H      -12.755967366     0.812320544   -11.885927625
 H       -5.732145665    11.487448785    -6.765618701
 H       -4.416366306    11.701437190    -5.586353302
 H       -4.575575495    10.163584225    -6.472087576
 H       -5.730137689     9.412183595    -2.343272440
 H       -4.772123216     8.576991276    -3.592985104
 H       -4.305006318    10.201700844    -3.057852136
 H       -3.243866079    12.968455957     2.015933649
 H       -1.903217477    13.510696452     0.979920932
 H       -3.381919462    14.497209723     1.106433562
 H       -3.683291242    12.816237136    -2.863118677
 H       -3.782728751    14.393623243    -2.040289420
 H       -2.231333799    13.520722704    -2.107799715
 H       -0.284651605    -0.349124657    -2.451698427
 H       -0.283157730    -1.905721116    -1.582457418
 H       -1.735521985    -0.871758471    -1.563277998
 H       -0.307899674    -0.363432811     2.445775610
 H       -1.704354876    -0.992642728     1.535140238
 H       -0.184027065    -1.917038989     1.581540610

