139   

Si        0.000000000     0.000000000     0.000000000
 C        1.869299426     0.000000000     0.000000000
 C       -0.649123014     1.728401193     0.000000000
 C        0.164600130     2.810495664     0.349523311
 C       -0.341429536     4.110297870     0.344403447
 C       -1.671638073     4.357605078    -0.004508199
 C       -2.487140701     3.271672898    -0.350375181
 C       -1.984508177     1.973274952    -0.347021491
 C       -2.244452029     5.699659867    -0.023987674
 C       -1.573044877     6.822269779     0.284147043
 C       -2.145576654     8.164306545     0.264745228
 C       -3.476418303     8.410848248    -0.084425959
 C       -3.982827921     9.710095627    -0.089711682
 C       -3.165827899    10.791228391     0.255048176
 C       -1.832040734    10.548174737     0.606823100
 C       -1.330150905     9.249416397     0.612296463
Si       -3.821001742    12.517074104     0.252964234
 C       -2.395864227    13.626088624    -0.039509409
 C       -1.965039180    14.589542955     0.784706635
 C       -0.815154912    15.448302987     0.496337661
 C       -0.446647572    16.428653864     1.428341927
 C        0.634199732    17.263971340     1.198132385
 C        1.381305951    17.149808172     0.006658652
 C        1.026059647    16.154207269    -0.917444309
 C       -0.040095362    15.302922527    -0.657135717
 N        2.477539136    18.018972022    -0.194052696
 C        2.226877157    19.440056202     0.129357965
 C        3.244363711    17.825031555    -1.435621308
 C        0.915076146    20.023986034    -0.427670257
 C        1.034611372    20.489954535    -1.891648079
 N       -0.162190379    20.219864906    -2.717568727
 C       -0.316375991    18.847887394    -3.071300583
 C        0.656644790    18.300268461    -3.929170733
 C        0.572457676    16.972996408    -4.316386480
 C       -0.498859691    16.166344851    -3.901629309
 C       -1.476179548    16.724142341    -3.074036812
 C       -1.395696821    18.052311278    -2.665033895
 C       -1.371834442    20.880338316    -2.197960427
 C       -0.527785785    14.771370392    -4.346547797
 C       -1.481445001    13.884145302    -4.033530933
Si       -1.471517343    12.143839017    -4.617913448
 C        0.026456436    11.874579368    -5.661927915
 C        0.103463964    12.457225980    -6.932539746
 C        1.227096917    12.264304084    -7.734121107
 C        2.303010848    11.494112308    -7.282047764
 C        2.226522635    10.917096686    -6.008120505
 C        1.102915740    11.105181990    -5.206256760
 C        3.498921355    11.265345701    -8.086371838
 C        3.697183371    11.759956476    -9.320062832
 C        4.893072669    11.531261079   -10.124511399
 C        5.967596713    10.758627421    -9.675458077
 C        7.091694765    10.566131375   -10.478043417
 C        7.162226932    11.135813707   -11.753611078
 C        6.085903070    11.909457930   -12.206513035
 C        4.967771724    12.106251351   -11.400118174
Si        8.646569745    10.886133640   -12.822894463
 C        9.521502703     9.301819001   -12.354267430
 C        8.125017635    10.780977123   -14.615159183
 C        9.796821803    12.338656316   -12.580446327
 C       -1.456802161    10.995552421    -3.147527608
 C       -3.010934848    11.831246136    -5.628765148
 C       -5.031997234    12.754464347    -1.150703155
 C       -4.655027528    12.853922184     1.887096192
 C       -0.604996514    -0.889717431    -1.528836071
 C       -0.628742262    -0.865035103     1.532206935
 H        1.213079946     2.680412199     0.631487474
 H        0.314227179     4.935294874     0.617639618
 H       -3.526532231     3.442134773    -0.625178025
 H       -2.668341894     1.166828313    -0.626163758
 H       -3.297814619     5.742868480    -0.316428769
 H       -0.519914009     6.778557874     0.577546295
 H       -4.130950228     7.585319935    -0.357515336
 H       -5.030694768     9.841109473    -0.372333250
 H       -1.148183852    11.358455381     0.883727931
 H       -0.291419826     9.078399214     0.889368116
 H       -1.886154131    13.432335490    -0.999567916
 H       -2.446191631    14.812548456     1.745086528
 H       -1.018078161    16.539732571     2.349798898
 H        0.913539939    18.002631894     1.943998888
 H        1.567452939    16.039571194    -1.853595327
 H       -0.284281870    14.529600216    -1.391125140
 H        4.107546116    18.510379682    -1.448543308
 H        2.655451713    17.979175438    -2.355664244
 H        3.651211419    16.796592841    -1.447152781
 H       -1.179611325    21.965033939    -2.129392019
 H       -1.700560093    20.523228846    -1.209804774
 H       -2.197527818    20.739907525    -2.918165102
 H        1.465226040    18.930067603    -4.293828629
 H        1.340034433    16.556773563    -4.970055357
 H       -2.315753521    16.116146856    -2.733030897
 H       -2.162569545    18.451397130    -2.007542061
 H        0.334755058    14.510906226    -4.979683367
 H       -2.339717938    14.157495252    -3.401815884
 H       -0.704930495    13.072605973    -7.339207029
 H        1.260637461    12.722582386    -8.720870493
 H        3.052762680    10.313382003    -5.637288821
 H        1.100238472    10.630375798    -4.220411842
 H        4.258876932    10.639992217    -7.608402278
 H        2.936761794    12.383909205    -9.798995131
 H        5.935284985    10.298761667    -8.689301534
 H        7.900542722     9.953013302   -10.070946551
 H        6.084202768    12.378391137   -13.194434427
 H        4.141915572    12.711587604   -11.769420536
 H        2.221557441    19.518694848     1.243316171
 H        3.095139635    20.045729901    -0.208758139
 H        0.106355125    19.267728510    -0.339935695
 H        0.588823377    20.865914398     0.209022297
 H        1.221395119    21.586602860    -1.932384487
 H        1.910945108    20.013488362    -2.383306844
 H        2.267346982    -1.028694919    -0.061481318
 H        2.278325038     0.456656232     0.918431576
 H        2.270706844     0.562132028    -0.862457110
 H       10.367051669     9.096987277   -13.034896102
 H        8.836651925     8.436101538   -12.406680849
 H        9.927552994     9.345717664   -11.328540495
 H        7.379102581     9.979740166   -14.767148123
 H        7.675146649    11.725503672   -14.967505133
 H        8.986720289    10.561018153   -15.270098865
 H       10.123928211    12.421001718   -11.528258474
 H       10.702039650    12.244170215   -13.205528948
 H        9.303971679    13.290861387   -12.846783590
 H       -0.702502061    11.289646845    -2.395119373
 H       -2.436831141    10.973441931    -2.636884040
 H       -1.236484008     9.955621436    -3.451173331
 H       -3.083759259    12.523162513    -6.486264161
 H       -3.017588250    10.802298658    -6.032053729
 H       -3.925438711    11.956856594    -5.022807505
 H       -4.585348660    12.475418799    -2.122180457
 H       -5.938894196    12.141188598    -1.012277771
 H       -5.352823961    13.809507830    -1.224212503
 H       -3.953777249    12.723765070     2.731709552
 H       -5.050316639    13.884033795     1.934995917
 H       -5.501415123    12.164334621     2.056019187
 H       -0.293168681    -0.360561892    -2.447792522
 H       -0.199412090    -1.915551569    -1.582140935
 H       -1.706066824    -0.967185548    -1.548780952
 H       -0.282292915    -0.356778647     2.450331947
 H       -1.732921332    -0.880524436     1.562090228
 H       -0.278151032    -1.911068882     1.577005963

