139   

Si        0.000000000     0.000000000     0.000000000
 C        1.868820664     0.000000000     0.000000000
 C       -0.584354960     1.751221188     0.000000000
 C       -0.328819502     2.565393508     1.110292659
 C       -0.760547570     3.890367891     1.132184301
 C       -1.451578192     4.434905076     0.045375473
 C       -1.704229086     3.619488090    -1.064753610
 C       -1.277041888     2.293379481    -1.088094082
 C       -1.922047797     5.816184959     0.024682976
 C       -1.748022527     6.698056834     1.023631112
 C       -2.217826905     8.079404164     1.004405937
 C       -1.966205242     8.890798336     2.118751483
 C       -2.395178871    10.215262041     2.146156483
 C       -3.081752322    10.760230159     1.054368816
 C       -3.332741876     9.953725052    -0.060261111
 C       -2.905124470     8.626825453    -0.082787885
Si       -3.649978501    12.513701346     1.089994105
 C       -5.207107644    12.613307374     0.123139988
 C       -5.393584434    13.369001139    -0.966499511
 C       -6.647508660    13.432886969    -1.723712310
 C       -6.708804998    14.267787659    -2.849819229
 C       -7.869257600    14.366025552    -3.601801403
 C       -9.001124361    13.612056526    -3.246733875
 C       -8.939052378    12.752247088    -2.144857723
 C       -7.761485427    12.649090685    -1.409823532
 N      -10.156671682    13.773612455    -4.077175890
 C      -10.882805239    15.032303346    -3.790146229
 C      -11.044998660    12.598967988    -4.127702357
 C      -11.663747340    15.039049348    -2.461225114
 C      -11.615396432    16.394401072    -1.730555422
 N      -10.423015118    16.620751698    -0.883676748
 C      -10.089275298    15.557224792    -0.014338141
 C      -11.114863972    14.903152390     0.700719845
 C      -10.815059480    13.857280561     1.559789045
 C       -9.493659319    13.429698107     1.746866542
 C       -8.477970402    14.108612070     1.068103189
 C       -8.758592724    15.178463150     0.229103086
 C       -9.301630997    17.231506184    -1.619159172
 C       -9.215046329    12.321053519     2.662861682
 C       -7.981753722    11.854197626     2.895802358
Si       -7.509310323    10.483102740     4.011134211
 C       -6.366040100    11.205107336     5.267736788
 C       -6.742554414    12.350304876     5.980953380
 C       -5.885831067    12.900930617     6.930413250
 C       -4.631878509    12.328044904     7.183288948
 C       -4.258239976    11.188337171     6.466387765
 C       -5.115653699    10.631612177     5.518038160
 C       -3.769067249    12.941114547     8.187753731
 C       -2.549712869    12.488645788     8.526171502
 C       -1.685765706    13.100642573     9.530417605
 C       -2.055755335    14.240990752    10.249966415
 C       -1.198734462    14.792592995    11.200676112
 C        0.052561793    14.216429674    11.451701252
 C        0.425133903    13.075362839    10.732641258
 C       -0.434859682    12.524467409     9.784844451
Si        1.166662750    14.969139613    12.716931296
 C        1.416320651    16.774682408    12.303371970
 C        0.360923464    14.801170877    14.394632538
 C        2.825622259    14.108198288    12.736823775
 C       -8.979761038     9.731311169     4.878518415
 C       -6.641213468     9.186648786     2.984075700
 C       -3.988634973    13.078178670     2.835307835
 C       -2.313984738    13.582156785     0.340208960
 C       -0.620457096    -0.907532312    -1.511536158
 C       -0.641756067    -0.853677096     1.533942090
 H        0.209232641     2.197032173     1.988409552
 H       -0.551815133     4.502116385     2.008121627
 H       -2.240720906     4.023005143    -1.921720228
 H       -1.504408288     1.705600435    -1.981547382
 H       -2.447515550     6.106734485    -0.890015455
 H       -1.221701865     6.406820845     1.937438987
 H       -1.431436716     8.483332545     2.974450969
 H       -2.176578079    10.799760627     3.045036631
 H       -3.869405145    10.327616850    -0.938559341
 H       -3.112804918     8.017064399    -0.960214347
 H       -6.010007426    11.962144465     0.508810186
 H       -4.609964091    14.018217401    -1.378953647
 H       -5.835696721    14.853045156    -3.137270184
 H       -7.909110082    15.006762515    -4.480658151
 H       -9.802673097    12.159403293    -1.855383823
 H       -7.727145866    11.957584477    -0.564773486
 H      -11.775660150    12.750589290    -4.941145999
 H      -11.598055803    12.395777400    -3.198331947
 H      -10.448303093    11.705778778    -4.383845687
 H       -9.673428448    18.056752525    -2.247806391
 H       -8.748090659    16.521832222    -2.258335671
 H       -8.597065571    17.675807505    -0.891996089
 H      -12.146387807    15.222051140     0.582468779
 H      -11.623793693    13.363099018     2.097848572
 H       -7.433025569    13.819096789     1.210579243
 H       -7.932668763    15.680077000    -0.268188714
 H      -10.112104707    11.905028125     3.135353408
 H       -7.107115444    12.313017388     2.401659671
 H       -7.704793610    12.845661737     5.817071947
 H       -6.194287381    13.789007171     7.478941164
 H       -3.290263934    10.723639358     6.643995179
 H       -4.768462118     9.739910106     4.987095041
 H       -4.188160118    13.828120728     8.671996037
 H       -2.130750518    11.600868921     8.043192407
 H       -3.022696573    14.708518233    10.071920996
 H       -1.544187017    15.683753537    11.732631549
 H        1.388909014    12.582292764    10.886055676
 H       -0.126828587    11.635848051     9.236997344
 H      -10.143711943    15.863177219    -3.814278193
 H      -11.574667554    15.211194899    -4.643021324
 H      -12.717028880    14.760798045    -2.645843146
 H      -11.269990356    14.245697102    -1.791201467
 H      -11.703029308    17.229954522    -2.458078303
 H      -12.505113936    16.485635802    -1.062089350
 H        2.271748859    -1.027857583     0.016805224
 H        2.273474156     0.532379771     0.879109568
 H        2.268540572     0.500550115    -0.900662992
 H        2.110650987    17.257783202    13.013230927
 H        0.464952285    17.334416181    12.334480466
 H        1.838257641    16.897036270    11.289103910
 H       -0.624740500    15.298845750    14.422260581
 H        0.201040693    13.739585145    14.657234319
 H        0.984449196    15.250582356    15.187452377
 H        3.318946373    14.158057401    11.749631597
 H        3.507358538    14.574854968    13.470399487
 H        2.727354447    13.042633885    13.010179346
 H       -9.521532843    10.480976259     5.482584288
 H       -9.696706930     9.300520682     4.157284437
 H       -8.670309035     8.920593282     5.562730890
 H       -5.715599600     9.578639121     2.522185097
 H       -6.360430381     8.307683351     3.590498552
 H       -7.287695964     8.827706032     2.162596702
 H       -4.529144330    12.314154439     3.424940811
 H       -3.052731266    13.298919967     3.379222905
 H       -4.602504101    13.997589845     2.853810837
 H       -2.090824373    13.283295996    -0.699511223
 H       -2.605908385    14.647175304     0.330208776
 H       -1.371451414    13.502343876     0.911358325
 H       -0.236322088    -0.455862392    -2.443388864
 H       -0.298886146    -1.964458162    -1.501250628
 H       -1.723943045    -0.899106542    -1.563176151
 H       -0.276942386    -0.365229019     2.454612672
 H       -1.746408016    -0.837707381     1.567180668
 H       -0.323130727    -1.910417896     1.568553020

