139   

Si        0.000000000     0.000000000     0.000000000
 C        1.867592119     0.000000000     0.000000000
 C       -0.600138806     1.746159296     0.000000000
 C       -0.273417767     2.603720942    -1.057533438
 C       -0.722421081     3.923908295    -1.065587367
 C       -1.525768503     4.409501390    -0.029852826
 C       -1.849058515     3.550557664     1.028011686
 C       -1.381283195     2.239074143     1.050393951
 C       -2.024521056     5.779151719     0.015381358
 C       -1.784032299     6.726932420    -0.906445037
 C       -2.300835212     8.090265012    -0.828297218
 C       -3.101965107     8.521712300     0.234130422
 C       -3.579669042     9.828660503     0.280197531
 C       -3.241289745    10.747977658    -0.722201520
 C       -2.432895373    10.322544503    -1.780550851
 C       -1.973404545     9.006804276    -1.834687297
Si       -3.909249970    12.464122844    -0.599275676
 C       -3.546351255    13.182479401     1.048606533
 C       -2.888044418    12.553450830     2.030919744
 C       -2.600478373    13.130125586     3.344451839
 C       -1.899968858    12.353977668     4.278808920
 C       -1.598285451    12.844987190     5.538435279
 C       -2.071414049    14.112042241     5.944525881
 C       -2.789117739    14.885261614     5.011167432
 C       -3.020614165    14.406283556     3.727768033
 N       -1.764713219    14.610347975     7.224084538
 C       -1.473195794    13.623925427     8.282681884
 C       -2.565984420    15.751430099     7.697311469
 C       -2.551322011    12.545292390     8.486392033
 C       -3.631282188    12.919539474     9.517334018
 N       -3.411606872    12.379643202    10.873182718
 C       -3.239805678    10.987414087    10.991958742
 C       -3.747017289    10.113961147    10.005814242
 C       -3.576166196     8.744392937    10.125841158
 C       -2.976484913     8.183135776    11.262014375
 C       -2.510584629     9.046119772    12.257456830
 C       -2.634411171    10.423988221    12.132370209
 C       -2.524305543    13.222515821    11.692943803
 C       -2.825096876     6.729262073    11.327904387
 C       -2.271825289     6.066142391    12.351684405
Si       -2.078006553     4.245242398    12.442854579
 C       -2.751972113     3.441446383    10.924398920
 C       -3.682985198     2.399344452    10.969205259
 C       -4.160537702     1.826531319     9.790746661
 C       -3.716489679     2.277677898     8.541976948
 C       -2.780594284     3.316577739     8.500731760
 C       -2.300847178     3.889768313     9.675519051
 C       -4.238645659     1.654005123     7.329450390
 C       -3.877386243     2.011241683     6.085436618
 C       -4.377419076     1.411479942     4.853787515
 C       -5.311817464     0.372125148     4.835593659
 C       -5.755402412    -0.164065296     3.627003569
 C       -5.291133206     0.344857584     2.408238418
 C       -4.364401383     1.392578600     2.425375782
 C       -3.913354413     1.918109227     3.633265809
Si       -5.880801825    -0.367733387     0.810204157
 C       -7.747656615    -0.323589041     0.768257369
 C       -5.199615804     0.613950739    -0.626972841
 C       -5.268650976    -2.130199538     0.691822526
 C       -0.259707519     3.835731332    12.574417222
 C       -2.975125948     3.639784117    13.965848331
 C       -3.142368695    13.567400350    -1.897552540
 C       -5.761181922    12.397751942    -0.837168573
 C       -0.652678290    -0.850520610    -1.531506931
 C       -0.630526963    -0.901489356     1.510762145
 H        0.340148030     2.276095973    -1.901154155
 H       -0.447080656     4.574841377    -1.892974239
 H       -2.466623193     3.914763151     1.847866310
 H       -1.648004727     1.619487315     1.913837476
 H       -2.642217301     6.005125414     0.891547665
 H       -1.170537551     6.513319939    -1.785248443
 H       -3.369202138     7.831494768     1.032753014
 H       -4.223763136    10.097629502     1.124558040
 H       -2.136709517    10.995944346    -2.589071676
 H       -1.350117370     8.692947478    -2.669823485
 H       -3.923426107    14.208064727     1.180502326
 H       -2.489741768    11.533670009     1.918141303
 H       -1.561495527    11.353513657     4.003173658
 H       -0.997332541    12.238387874     6.210291814
 H       -3.158263215    15.871036425     5.274341427
 H       -3.556675890    15.036729516     3.017101576
 H       -2.266853759    16.028980187     8.721223064
 H       -3.651030049    15.558302458     7.688490328
 H       -2.355506259    16.630031097     7.059309338
 H       -2.708243431    14.288411935    11.481511630
 H       -1.454070066    13.013245299    11.534099984
 H       -2.763344283    13.067932008    12.761409026
 H       -4.268957959    10.504215031     9.136480446
 H       -3.941117326     8.091742658     9.330659784
 H       -2.039177456     8.637179952    13.152153895
 H       -2.256983397    11.057114228    12.928799834
 H       -3.231117932     6.218331730    10.441779220
 H       -1.885162729     6.599447590    13.233645277
 H       -4.067131672     2.007253972    11.914554416
 H       -4.887355561     1.018383610     9.846285184
 H       -2.415409287     3.685528096     7.543667344
 H       -1.561142170     4.691651571     9.576774278
 H       -4.964146789     0.853724933     7.495526166
 H       -3.148694168     2.814825101     5.931867842
 H       -5.695835613    -0.032029431     5.770034926
 H       -6.478186814    -0.982987021     3.675209174
 H       -3.975865985     1.836545922     1.501652728
 H       -3.192016485     2.733858481     3.628178564
 H       -0.501132723    13.140614162     8.018695073
 H       -1.278772281    14.165420391     9.233998595
 H       -3.043078189    12.311829142     7.519533987
 H       -2.057136005    11.596429979     8.780994995
 H       -3.742604259    14.023365865     9.586991243
 H       -4.627967547    12.549586255     9.175106774
 H        2.270566305    -1.028100247    -0.001678588
 H        2.268145977     0.512383169     0.893737854
 H        2.273800950     0.518681047    -0.886203988
 H       -8.138784063    -0.735055264    -0.178864291
 H       -8.125272693     0.711068968     0.861742726
 H       -8.187874346    -0.910739411     1.593117393
 H       -5.505609184     1.674782156    -0.576245307
 H       -4.094311993     0.589021720    -0.650909937
 H       -5.558067601     0.213342053    -1.591701946
 H       -5.640673944    -2.745757677     1.529406882
 H       -5.599770353    -2.608526622    -0.246447491
 H       -4.164316685    -2.172031412     0.715613554
 H        0.300797695     4.207553488    11.697583713
 H        0.193207701     4.286893221    13.474552095
 H       -0.099621307     2.743885932    12.630116220
 H       -4.056938480     3.859965300    13.906344954
 H       -2.859287269     2.549737213    14.098219935
 H       -2.590235485     4.127269389    14.879359260
 H       -2.043200306    13.610268483    -1.786370443
 H       -3.364588805    13.208433067    -2.917739447
 H       -3.521288237    14.602133354    -1.820600862
 H       -6.243982233    11.770906968    -0.065645075
 H       -6.213217763    13.403368879    -0.779212488
 H       -6.022031066    11.969374013    -1.821641729
 H       -0.309894649    -0.348266405    -2.452894966
 H       -0.318237642    -1.901548593    -1.581073371
 H       -1.758063923    -0.851847358    -1.546939242
 H       -0.268800788    -0.435046032     2.444977481
 H       -1.735882388    -0.907007741     1.548797525
 H       -0.296058388    -1.954110347     1.517554424

