139   

Si        0.000000000     0.000000000     0.000000000
 C        1.868282482     0.000000000     0.000000000
 C       -0.644873533     1.729129394     0.000000000
 C        0.078584003     2.768307228    -0.594556200
 C       -0.416981170     4.072247681    -0.589598304
 C       -1.650866920     4.362301778    -0.002353403
 C       -2.375699285     3.319312318     0.589793533
 C       -1.879231170     2.019061873     0.594607699
 C       -2.217531083     5.705233905     0.032110774
 C       -1.643165890     6.806128945    -0.481569076
 C       -2.244176223     8.135221390    -0.426497420
 C       -1.566212352     9.222785829    -0.991626480
 C       -2.112226070    10.504622982    -0.956054597
 C       -3.367917912    10.723965666    -0.376800540
 C       -4.052184341     9.635737237     0.176916618
 C       -3.496333094     8.358498740     0.153121437
Si       -4.127701889    12.401729627    -0.307990271
 C       -4.099206199    13.298617881    -1.901709382
 C       -3.603498630    12.884050104    -3.073978323
 C       -3.638520736    13.698929119    -4.293474807
 C       -3.092342534    13.175826051    -5.475146284
 C       -3.103170200    13.909829058    -6.651329195
 C       -3.715495944    15.173887580    -6.682861096
 C       -4.274718030    15.699224304    -5.512837142
 C       -4.220622258    14.968311252    -4.330013586
 N       -3.683660050    15.867605820    -7.935791378
 C       -4.697243338    15.340161855    -8.877553588
 C       -3.713221505    17.336947719    -7.827114473
 C       -6.158334221    15.644663178    -8.486976363
 C       -7.155043439    14.701859231    -9.189261166
 N       -7.621579688    13.561225316    -8.369169496
 C       -6.585555546    12.672231113    -7.974511081
 C       -5.841814396    12.045836614    -8.994384030
 C       -4.819597329    11.169280131    -8.670174688
 C       -4.532722542    10.856728529    -7.333051749
 C       -5.299710044    11.451299411    -6.328027074
 C       -6.327448945    12.335220437    -6.638299744
 C       -8.546947093    13.979617253    -7.301513431
 C       -3.440566450     9.923582546    -7.050012565
 C       -3.068477840     9.545129749    -5.820111872
Si       -1.702275110     8.377755676    -5.464541120
 C       -2.326820937     6.903937578    -4.555238595
 C       -3.575868161     6.897827522    -3.927798298
 C       -4.019376259     5.763707909    -3.246636382
 C       -3.225040606     4.616775018    -3.181758926
 C       -1.971162153     4.626876125    -3.807972944
 C       -1.523585793     5.757962411    -4.482741922
 C       -3.634689585     3.403443493    -2.485572681
 C       -4.799624579     3.232882909    -1.838298083
 C       -5.170703668     1.999006421    -1.152901452
 C       -4.328110066     0.883571876    -1.117786360
 C       -4.709716106    -0.281012984    -0.455317860
 C       -5.945185539    -0.353132905     0.197721192
 C       -6.789057447     0.763662515     0.170369591
 C       -6.404781551     1.925798924    -0.495452688
Si       -6.440297457    -1.900680503     1.071985108
 C       -5.751929251    -3.383630650     0.164356954
 C       -5.734095493    -1.839409159     2.801988710
 C       -8.302141652    -2.039361765     1.147783621
 C       -0.878157810     7.822021332    -7.048200568
 C       -0.466054513     9.288626500    -4.398104511
 C       -5.920594475    12.288097840     0.215087414
 C       -3.167509586    13.410575674     0.939595065
 C       -0.634661211    -0.846758134    -1.542816543
 C       -0.624260615    -0.909371297     1.509617761
 H        1.046819280     2.601313832    -1.072910587
 H        0.164625444     4.866018745    -1.054217065
 H       -3.343543232     3.522432213     1.046680872
 H       -2.492673941     1.249098208     1.073329068
 H       -3.192492966     5.769156834     0.527566855
 H       -0.675713122     6.753678510    -0.986176822
 H       -0.591000500     9.065532993    -1.450043143
 H       -1.529543658    11.318561829    -1.397241188
 H       -5.037325072     9.740046032     0.640278388
 H       -4.052143874     7.530783137     0.590780538
 H       -4.560650926    14.298692618    -1.813332006
 H       -3.137452860    11.899704933    -3.212805102
 H       -2.628852635    12.186299152    -5.470256776
 H       -2.652285568    13.509202377    -7.558551962
 H       -4.749434165    16.675517244    -5.517869358
 H       -4.651936304    15.398800883    -3.426280337
 H       -3.484292121    17.762620220    -8.819613526
 H       -2.914806551    17.663541412    -7.137767444
 H       -4.668631258    17.757298636    -7.480936319
 H       -9.388645110    14.530898866    -7.754823709
 H       -8.090950374    14.616010558    -6.526914513
 H       -8.972646037    13.081589479    -6.818767609
 H       -6.076783384    12.249819990   -10.036086383
 H       -4.241449922    10.705967826    -9.469598044
 H       -5.104193182    11.220205587    -5.278363249
 H       -6.896141123    12.784399381    -5.829279720
 H       -2.947237546     9.554041420    -7.959097030
 H       -3.585492994     9.923970420    -4.923442572
 H       -4.240342822     7.766962599    -3.947055594
 H       -4.993656132     5.780888095    -2.762077026
 H       -1.337057462     3.743258113    -3.760048733
 H       -0.535448566     5.708187317    -4.947596018
 H       -2.892577297     2.596568885    -2.511279722
 H       -5.544273054     4.030748159    -1.798405576
 H       -3.360794163     0.917497637    -1.619198024
 H       -4.009928469    -1.121326320    -0.470040274
 H       -7.765698875     0.763296782     0.660911155
 H       -7.075185692     2.782625785    -0.506763017
 H       -4.470642454    15.756980584    -9.882548755
 H       -4.543948277    14.236997609    -8.950154381
 H       -6.270779756    15.559946609    -7.387669896
 H       -6.400471810    16.693967040    -8.729887133
 H       -8.056287264    15.272686846    -9.508262738
 H       -6.713870734    14.293727278   -10.125971130
 H        2.268490770    -1.027059150     0.066652465
 H        2.268685856     0.567212645     0.859827638
 H        2.279168867     0.454667356    -0.918037415
 H       -6.090685573    -4.327224122     0.627525259
 H       -4.647966417    -3.391616537     0.167799104
 H       -6.082428767    -3.395007371    -0.890178239
 H       -4.633186406    -1.749239585     2.785307544
 H       -6.127046150    -0.974246825     3.365590558
 H       -5.987069248    -2.750829902     3.371252925
 H       -8.747906785    -1.994172082     0.137538592
 H       -8.613151005    -2.995684398     1.604671795
 H       -8.749668388    -1.227036852     1.746682739
 H       -1.579103638     7.250941928    -7.683927820
 H       -0.515767590     8.682476175    -7.637995789
 H       -0.009969034     7.170596413    -6.848865553
 H       -0.958675216     9.741228140    -3.517351670
 H        0.325290088     8.612503704    -4.031759986
 H        0.022138911    10.103550685    -4.961802569
 H       -6.502983335    11.659169379    -0.482433121
 H       -6.023325258    11.856716889     1.225994910
 H       -6.395448146    13.285131286     0.233743977
 H       -2.113833424    13.533524053     0.629829764
 H       -3.598001244    14.419070399     1.065060740
 H       -3.165549121    12.920702950     1.929888201
 H       -0.310089772    -0.315348063    -2.455207751
 H       -0.262168596    -1.883592342    -1.611174862
 H       -1.738711163    -0.887743191    -1.558101583
 H       -0.340084746    -0.381893042     2.438173058
 H       -1.724853916    -1.004929928     1.505295933
 H       -0.203755070    -1.928628072     1.565072532

