139   

Si        0.000000000     0.000000000     0.000000000
 C        1.869511221     0.000000000     0.000000000
 C       -0.584798936     1.750232433     0.000000000
 C       -0.236941774     2.592600254    -1.063239965
 C       -0.665721513     3.918192834    -1.087122681
 C       -1.457777589     4.431231491    -0.055100364
 C       -1.806191253     3.586636872     1.006119457
 C       -1.374004162     2.262320328     1.035549612
 C       -1.927994264     5.811464098    -0.040447896
 C       -1.659258493     6.720373357    -0.992694294
 C       -2.132105577     8.100206604    -0.973445219
 C       -2.923678276     8.610889812     0.059082739
 C       -3.353259498     9.936475748     0.036536646
 C       -2.960045613    10.792650485    -0.998525308
 C       -2.163280149    10.284989736    -2.031327744
 C       -1.769629731     8.949098449    -2.026504441
Si       -3.530372596    12.543856603    -1.024026469
 C       -3.503965462    13.351022951     0.619409112
 C       -3.130753106    12.833210028     1.797455339
 C       -3.155008556    13.587892257     3.053978309
 C       -2.748043295    12.972775463     4.245247096
 C       -2.759347818    13.660503380     5.452082015
 C       -3.141296153    15.015183533     5.496057337
 C       -3.548418411    15.636951139     4.296901190
 C       -3.568753321    14.923734481     3.109071447
 N       -3.173132424    15.764423738     6.684205177
 C       -2.766556357    15.139752684     7.946311900
 C       -2.798681400    17.184259779     6.572542200
 C       -1.244128816    15.045201588     8.149848327
 C       -0.929331445    14.359863974     9.494394195
 N        0.203183545    13.413179190     9.432731048
 C        0.058518466    12.384368559     8.470210696
 C       -1.168291071    11.692045640     8.398693175
 C       -1.347955915    10.679486767     7.470398442
 C       -0.304990793    10.286486447     6.619809659
 C        0.917487249    10.956547744     6.712337327
 C        1.105844245    11.989587844     7.622524178
 C        1.506611898    14.098321376     9.469802555
 C       -0.539145098     9.211618519     5.653529519
 C        0.393835071     8.768561813     4.801599568
Si        0.183880988     7.433588842     3.565860364
 C        0.513251776     8.234601923     1.937736932
 C        0.184442945     9.586395279     1.768586067
 C        0.420398336    10.219718619     0.552605763
 C        1.004751906     9.523095276    -0.513465245
 C        1.334512769     8.176376241    -0.339805991
 C        1.086946932     7.534316358     0.873761481
 C        1.229476289    10.236175078    -1.765955913
 C        1.766617506     9.695561433    -2.872576589
 C        1.985563904    10.421413754    -4.119011436
 C        1.648855642    11.769415284    -4.273558117
 C        1.874724781    12.426399711    -5.482223522
 C        2.450290831    11.750723102    -6.563737153
 C        2.787826576    10.400177672    -6.411602322
 C        2.554015841     9.744121432    -5.205466741
Si        2.748967029    12.621449943    -8.163680378
 C        3.111148426    14.428622091    -7.849153849
 C        4.207933501    11.857393274    -9.048567738
 C        1.214418157    12.457552550    -9.217532330
 C        1.410233582     6.069647945     3.904311992
 C       -1.548996600     6.739265603     3.573449992
 C       -2.422556985    13.550396840    -2.148642385
 C       -5.286101695    12.569183286    -1.664164832
 C       -0.642349974    -0.849151578    -1.535891110
 C       -0.618037517    -0.908893941     1.511781519
 H        0.375658762     2.246785435    -1.900427535
 H       -0.380238795     4.554138670    -1.923439037
 H       -2.424148966     3.963846814     1.818738000
 H       -1.676326085     1.651003636     1.889867353
 H       -2.545451772     6.078074515     0.822122467
 H       -1.042779642     6.459944713    -1.858119195
 H       -3.214288831     7.971676917     0.890646896
 H       -3.996461402    10.270848563     0.856167536
 H       -1.826541460    10.903903995    -2.867828542
 H       -1.156399698     8.570270960    -2.843078324
 H       -3.859038785    14.395167144     0.559561509
 H       -2.761005279    11.805566844     1.910301211
 H       -2.413643078    11.933214907     4.231719447
 H       -2.439404872    13.142934505     6.353814902
 H       -3.869862876    16.673719560     4.299632127
 H       -3.905436057    15.426533954     2.201174927
 H       -2.641050106    17.628530745     7.568137236
 H       -3.629658094    17.739331199     6.099347557
 H       -1.885501775    17.340691816     5.974671609
 H        1.525319311    14.798794828    10.322165864
 H        1.741682131    14.659950183     8.551730989
 H        2.304224474    13.356093376     9.652917410
 H       -1.979210145    11.951811407     9.073879898
 H       -2.311632946    10.172523619     7.414065726
 H        1.744357776    10.675595678     6.057490284
 H        2.067763570    12.491840837     7.652203448
 H       -1.555463368     8.800891841     5.692668981
 H        1.406824334     9.205780440     4.792366831
 H       -0.266778120    10.182356710     2.569596506
 H        0.144759582    11.266722034     0.431378114
 H        1.787238904     7.614544456    -1.153961366
 H        1.354114572     6.476773776     0.950577864
 H        0.916408250    11.285490796    -1.753126592
 H        2.079142603     8.648250651    -2.888048593
 H        1.205105801    12.320159228    -3.445628528
 H        1.589551055    13.480296205    -5.542656275
 H        3.240352116     9.821314916    -7.221292840
 H        2.821412868     8.693725284    -5.107988474
 H       -3.226403833    15.731145578     8.773175300
 H       -3.229622100    14.126371646     8.004909334
 H       -0.793459260    14.483274924     7.306424933
 H       -0.781082029    16.045163632     8.105783972
 H       -0.711905726    15.121174320    10.274941333
 H       -1.814028894    13.797272938     9.872735707
 H        2.271821991    -1.028251177     0.003088599
 H        2.268930486     0.517230618     0.891165561
 H        2.274619920     0.514506012    -0.889123611
 H        3.367553018    14.953516137    -8.786547801
 H        3.963655669    14.550312362    -7.156421377
 H        2.244251739    14.948963541    -7.405984084
 H        5.111178467    11.867503454    -8.411811200
 H        4.011508684    10.808862607    -9.332715506
 H        4.448031176    12.410513695    -9.974012257
 H        0.334995605    12.903857210    -8.719619990
 H        1.338991366    12.961820602   -10.191841422
 H        0.975982169    11.397435955    -9.417485065
 H        2.451520089     6.431117563     3.830270960
 H        1.276099373     5.650548576     4.917626266
 H        1.293396051     5.238903294     3.184336127
 H       -2.294396313     7.508415488     3.302971182
 H       -1.640149641     5.910656120     2.846873441
 H       -1.818268666     6.340210405     4.566958746
 H       -1.370037863    13.504767875    -1.814553292
 H       -2.463140659    13.187396620    -3.190564123
 H       -2.720948678    14.613094521    -2.157363111
 H       -5.961881241    12.000956614    -0.999414928
 H       -5.678159068    13.598113122    -1.736503487
 H       -5.351981221    12.113146052    -2.668137678
 H       -0.289108169    -0.348343449    -2.454566597
 H       -0.312725482    -1.901978823    -1.581434155
 H       -1.747339096    -0.844074351    -1.562163563
 H       -0.257417089    -0.437852153     2.443477189
 H       -1.721852471    -0.928108068     1.549350150
 H       -0.269706474    -1.957342267     1.515923462

