139   

Si        0.000000000     0.000000000     0.000000000
 C        1.868716659     0.000000000     0.000000000
 C       -0.660714360     1.723857905     0.000000000
 C        0.169475840     2.845222798     0.082869295
 C       -0.371718369     4.132179350     0.079716674
 C       -1.753217716     4.323667595     0.010292918
 C       -2.584935469     3.197254957    -0.062160632
 C       -2.048245679     1.913832947    -0.065041836
 C       -2.377104999     5.641935862     0.003378564
 C       -1.724285812     6.814977063     0.061251475
 C       -2.384877555     8.116892972     0.052067285
 C       -3.775221956     8.250253436    -0.018978477
 C       -4.374240412     9.509733146    -0.025741031
 C       -3.592204137    10.667317219     0.028087480
 C       -2.198618505    10.538416037     0.094747934
 C       -1.603826894     9.278985950     0.107118811
Si       -4.369677954    12.342837046     0.019965945
 C       -3.417595490    13.373757211     1.199289723
 C       -2.759222290    14.500725760     0.897501062
 C       -2.008880971    15.296293449     1.872549802
 C       -1.357025972    16.460992277     1.441835832
 C       -0.635327888    17.245653424     2.327146344
 C       -0.487091873    16.846527388     3.671129634
 C       -1.132848353    15.677219914     4.104141709
 C       -1.902060939    14.932746569     3.217987470
 N        0.258774161    17.679050452     4.541315308
 C        1.612891706    18.039213100     4.071943377
 C        0.242171213    17.305742747     5.966610357
 C        2.580818828    16.848227208     3.933930454
 C        2.802529011    16.461563351     2.457711179
 N        3.315352304    15.088279400     2.262697267
 C        2.349722375    14.090300002     2.592107265
 C        1.223591412    14.000362131     1.753698717
 C        0.244141424    13.056283234     2.010201733
 C        0.379619970    12.139722999     3.064064938
 C        1.512871750    12.218540956     3.875136147
 C        2.491346810    13.183157847     3.648933794
 C        4.653436599    14.891550907     2.846212621
 C       -0.692274732    11.165313375     3.283633833
 C       -0.679684732    10.242553178     4.252905635
Si       -1.994146825     9.004644375     4.566887390
 C       -1.220661181     7.339614913     4.395661464
 C       -0.060597044     7.183612712     3.626312620
 C        0.531682112     5.930950920     3.490318870
 C       -0.032797438     4.803300770     4.100024221
 C       -1.198524220     4.960289451     4.855004927
 C       -1.789938663     6.214721879     4.999769823
 C        0.623682982     3.511740034     3.929252964
 C        0.190439724     2.358648354     4.465990794
 C        0.848258585     1.068349825     4.294047703
 C        2.013836858     0.913842676     3.538642707
 C        2.611570259    -0.338255490     3.399247616
 C        2.062546693    -1.463088095     4.023519812
 C        0.896947124    -1.310388133     4.784924630
 C        0.297561631    -0.060082960     4.916371442
Si        2.855457774    -3.118806202     3.837467841
 C        4.694289834    -2.923445192     3.563758125
 C        2.572645208    -4.144099763     5.374147580
 C        2.083075068    -3.960891303     2.357771744
 C       -2.583973050     9.249721092     6.326275056
 C       -3.439229473     9.172297053     3.410292674
 C       -4.306211666    13.025972072    -1.715041320
 C       -6.137333637    12.259840175     0.615777336
 C       -0.594664204    -0.859136808    -1.553496610
 C       -0.648966096    -0.902806323     1.496103745
 H        1.256553269     2.755622250     0.147687246
 H        0.294537493     4.990392064     0.141893508
 H       -3.664469789     3.325494727    -0.112927333
 H       -2.747204522     1.074635628    -0.120172889
 H       -3.470695036     5.621493900    -0.052369373
 H       -0.633877700     6.848224746     0.127235505
 H       -4.406946240     7.365023651    -0.066461763
 H       -5.465353096     9.547067449    -0.076699120
 H       -1.536448053    11.410096774     0.132617698
 H       -0.519058608     9.199457932     0.166708349
 H       -3.432723046    12.982981267     2.230755542
 H       -2.730256504    14.919094124    -0.116860875
 H       -1.432717941    16.767749601     0.398554593
 H       -0.182797247    18.172600436     1.984931421
 H       -1.032448030    15.330799725     5.128478335
 H       -2.402466833    14.033486630     3.583369286
 H        0.732999992    18.101035431     6.553436650
 H        0.743567667    16.350225668     6.188847839
 H       -0.804762632    17.249589542     6.315410070
 H        5.348297591    15.612440873     2.381395625
 H        5.013800957    13.879570799     2.589630764
 H        4.701425621    15.016771314     3.938248574
 H        1.121608184    14.683530588     0.912237577
 H       -0.638443534    13.017989670     1.367352560
 H        1.641301721    11.521032223     4.703276012
 H        3.354513135    13.228052964     4.305390487
 H       -1.520771390    11.261087643     2.567152419
 H        0.164984215    10.168112688     4.956900667
 H        0.416391368     8.028634043     3.118631934
 H        1.437770661     5.828482659     2.896843182
 H       -1.659363609     4.098181485     5.333159469
 H       -2.701823572     6.276623395     5.599151300
 H        1.523980622     3.534764774     3.308238243
 H       -0.715061343     2.333901966     5.078766254
 H        2.464675278     1.776159948     3.050157952
 H        3.521277867    -0.397446826     2.795115108
 H        0.424833726    -2.152964107     5.297128430
 H       -0.608169988     0.039145845     5.511765223
 H        1.512811030    18.581901569     3.105426368
 H        2.026358154    18.786442543     4.786983507
 H        3.546938195    17.085597648     4.411396710
 H        2.185418181    15.972285400     4.486794481
 H        1.844537226    16.551143496     1.893001784
 H        3.518261134    17.162400917     1.975766498
 H        2.264432375    -1.030653287     0.033183166
 H        2.268977210     0.534841545     0.880057025
 H        2.273050276     0.484814469    -0.905421518
 H        5.198226814    -3.905580929     3.524306732
 H        5.161328283    -2.344652042     4.381169369
 H        4.915605106    -2.401721893     2.616389145
 H        2.949253595    -3.626303626     6.274974134
 H        1.501112584    -4.355424228     5.535317214
 H        3.093895717    -5.115623049     5.308180157
 H        2.217473674    -3.360510073     1.439592884
 H        2.532441862    -4.953047447     2.178100831
 H        0.997114886    -4.105917706     2.499468470
 H       -1.769279483     9.079781008     7.052056501
 H       -2.958461600    10.277268727     6.480829182
 H       -3.403873798     8.555134823     6.577346132
 H       -3.117933629     9.100601596     2.351713950
 H       -4.184797417     8.374667756     3.575764095
 H       -3.951420124    10.142802111     3.534841693
 H       -3.267609838    13.093442247    -2.086889348
 H       -4.863193068    12.381705441    -2.419175532
 H       -4.749713930    14.035887042    -1.768977427
 H       -6.211608910    11.768600872     1.602558422
 H       -6.570116875    13.271857710     0.718244791
 H       -6.777412219    11.698429685    -0.086938864
 H       -0.243936169    -0.334174245    -2.459771601
 H       -0.222941760    -1.897139779    -1.603319982
 H       -1.696929544    -0.896200842    -1.598983970
 H       -0.291924552    -0.426242294     2.431173617
 H       -1.751670843    -0.903876711     1.528404586
 H       -0.307981087    -1.952718848     1.514869067

