139   

Si        0.000000000     0.000000000     0.000000000
 C        1.869626878     0.000000000     0.000000000
 C       -0.652943063     1.726128108     0.000000000
 C        0.184245436     2.823584001    -0.220890423
 C       -0.329648602     4.120156236    -0.216756108
 C       -1.689462534     4.350155654     0.006389611
 C       -2.527706121     3.248351299     0.225191900
 C       -2.018370471     1.952680737     0.220630714
 C       -2.269721951     5.688915693     0.019361773
 C       -1.577142258     6.823529950    -0.177277922
 C       -2.154196128     8.163558227    -0.164951816
 C       -1.306010318     9.256627505    -0.386117092
 C       -1.807400066    10.554023471    -0.384229560
 C       -3.170976060    10.791525040    -0.165571451
 C       -4.019229662     9.703963457     0.055728852
 C       -3.512885398     8.403340227     0.058231528
Si       -3.765309021    12.534298238    -0.176627220
 C       -5.593107200    12.645078602    -0.178626324
 C       -6.310324302    13.249737547     0.777383509
 C       -7.771826996    13.340513016     0.779528699
 C       -8.399037060    14.004945031     1.846847272
 C       -9.777058080    14.120833093     1.900525737
 C      -10.569616542    13.602859351     0.856898260
 C       -9.949977461    12.936847068    -0.208710423
 C       -8.565407249    12.792471149    -0.228914996
 N      -11.977579429    13.758238272     0.979696444
 C      -12.439626362    15.160329008     0.948998930
 C      -12.794323443    12.850441979     0.159010323
 C      -12.527914033    15.820219684    -0.442450966
 C      -11.152152559    16.243929316    -0.994818963
 N      -10.599818270    17.363851988    -0.211712312
 C       -9.210369247    17.454973023    -0.027420317
 C       -8.330781997    16.406839983    -0.362404635
 C       -6.964959703    16.537723278    -0.164373427
 C       -6.419540741    17.699893400     0.397353194
 C       -7.294783328    18.730004677     0.755794380
 C       -8.664157302    18.614199718     0.564846361
 C      -11.295605414    18.641510521    -0.453476104
 C       -4.970658369    17.787491027     0.585143188
 C       -4.342630913    18.848234691     1.111299189
Si       -2.534620447    18.995803091     1.362272647
 C       -1.698646125    17.457558271     0.779733366
 C       -1.126737376    16.559340001     1.685640375
 C       -0.497556372    15.399968525     1.233329393
 C       -0.419521770    15.116586568    -0.132724659
 C       -0.990077050    16.019869143    -1.039646077
 C       -1.622127048    17.176414967    -0.590890892
 C        0.229577665    13.915406954    -0.647262474
 C        0.811776032    12.975599899     0.116971431
 C        1.461190776    11.773983007    -0.396513596
 C        1.538526504    11.484576468    -1.761289808
 C        2.169053252    10.323643077    -2.208742692
 C        2.710078721     9.411873430    -1.297526177
 C        2.621264386     9.692695438     0.072692362
 C        2.004746349    10.859528071     0.515792265
Si        3.549897463     7.867654649    -1.861796284
 C        3.799256882     7.885881732    -3.713136723
 C        5.207847993     7.722355371    -1.013215316
 C        2.459331818     6.422055544    -1.397106067
 C       -1.895719599    20.453158042     0.382480489
 C       -2.211264385    19.278277965     3.181284355
 C       -3.071758739    13.369312510     1.341944754
 C       -3.175419744    13.390845873    -1.729684641
 C       -0.624793938    -0.869738602    -1.531490210
 C       -0.608332784    -0.884341767     1.530650650
 H        1.256478591     2.707872161    -0.399967702
 H        0.344842377     4.957889747    -0.390005475
 H       -3.590528133     3.404723855     0.400771613
 H       -2.721153636     1.133505964     0.396269691
 H       -3.346850040     5.719409535     0.206222736
 H       -0.498496247     6.794637565    -0.363684737
 H       -0.241101446     9.096909344    -0.560195731
 H       -1.094306299    11.367350824    -0.561369004
 H       -5.090298141     9.833472834     0.235310842
 H       -4.191462439     7.571424228     0.235986395
 H       -6.077775162    12.170970799    -1.045419949
 H       -5.849759189    13.731936728     1.651618337
 H       -7.794501678    14.435530930     2.646412681
 H      -10.255328119    14.618153342     2.742456425
 H      -10.539106102    12.523509318    -1.020767162
 H       -8.102204027    12.256061256    -1.057505779
 H      -13.850723055    12.951511481     0.461663927
 H      -12.492968183    11.808431415     0.369191323
 H      -12.725441515    13.021974708    -0.926134019
 H      -12.293609680    18.479383384    -0.889136369
 H      -10.737450676    19.309333591    -1.131517791
 H      -11.440947257    19.157041794     0.513559694
 H       -8.709004927    15.477001930    -0.784362816
 H       -6.308693989    15.709214459    -0.444092783
 H       -6.901658670    19.643270792     1.203758463
 H       -9.310538497    19.426191779     0.880718000
 H       -4.435418310    16.886220394     0.251416747
 H       -4.904653186    19.736297084     1.439278411
 H       -1.153001755    16.728185665     2.765842905
 H       -0.057771977    14.718690912     1.959981985
 H       -0.940032241    15.817998256    -2.107983443
 H       -2.052334216    17.843506358    -1.344007246
 H        0.225875290    13.823366655    -1.737599337
 H        0.823376960    13.071047605     1.207005428
 H        1.113861107    12.170997041    -2.491708197
 H        2.209863309    10.158200519    -3.288879476
 H        3.023349039     9.014959990     0.831289670
 H        1.944551243    11.060708585     1.584212792
 H      -13.443517210    15.177249582     1.431515198
 H      -11.768938984    15.772834803     1.598638933
 H      -13.009170004    15.136534433    -1.164936545
 H      -13.197134505    16.698637359    -0.370693248
 H      -10.466824394    15.364796987    -0.944437205
 H      -11.240707747    16.510238369    -2.071292763
 H        2.267161654    -1.029429184     0.050947127
 H        2.272207809     0.552942797     0.867565776
 H        2.276969998     0.465292236    -0.914822448
 H        4.338887055     6.983295877    -4.051693656
 H        4.391653205     8.761704204    -4.032663035
 H        2.837046890     7.915157949    -4.255142929
 H        5.852258804     8.589899103    -1.244702032
 H        5.104659985     7.672641793     0.084887202
 H        5.746898761     6.814585541    -1.336916305
 H        1.481148329     6.483728524    -1.910037262
 H        2.924227275     5.461563840    -1.681913005
 H        2.272098737     6.395870265    -0.308333810
 H       -2.120196765    20.347976649    -0.694012982
 H       -2.351262588    21.399173370     0.724320629
 H       -0.800257826    20.553032441     0.485474154
 H       -2.633943900    18.465526397     3.799005761
 H       -1.129162494    19.337214728     3.393763569
 H       -2.668671362    20.222824786     3.526163939
 H       -3.501860923    12.948082688     2.267574501
 H       -1.975502773    13.235104118     1.396191486
 H       -3.269806258    14.457300592     1.336534397
 H       -3.598829487    12.922531030    -2.634925737
 H       -3.468916507    14.456586196    -1.730622067
 H       -2.075340290    13.349331751    -1.814639725
 H       -0.278021604    -0.362260231    -2.449856929
 H       -0.271653447    -1.914928371    -1.573852524
 H       -1.728815840    -0.887769684    -1.563042085
 H       -0.275785838    -0.366443155     2.448725989
 H       -1.710868811    -0.935067251     1.561216445
 H       -0.226119310    -1.919322387     1.575017049

