139   

Si        0.000000000     0.000000000     0.000000000
 C        1.869134210     0.000000000     0.000000000
 C       -0.651447342     1.727500295     0.000000000
 C        0.159015803     2.810010381    -0.355834492
 C       -0.348779546     4.109198068    -0.350617800
 C       -1.676736303     4.355624210     0.007375106
 C       -2.488762019     3.269205895     0.360053674
 C       -1.985033731     1.971305507     0.354495243
 C       -2.251868912     5.696556680     0.027548398
 C       -1.585933940     6.820372291    -0.288288363
 C       -2.163908321     8.160215443    -0.267172316
 C       -1.356802852     9.248949853    -0.620095184
 C       -1.865690212    10.546226518    -0.614353128
 C       -3.194031611    10.785224393    -0.246883103
 C       -4.002583296     9.698275765     0.109089090
 C       -3.492234191     8.401773554     0.097224499
Si       -3.906411238    12.486392877    -0.225981155
 C       -5.347908750    12.577101891    -1.355738571
 C       -5.811497163    11.555133001    -2.086654246
 C       -6.963990961    11.637676176    -2.986404175
 C       -7.345588787    10.487991939    -3.695918397
 C       -8.427576040    10.510631411    -4.559806377
 C       -9.142320050    11.707847150    -4.769169238
 C       -8.765904713    12.858293709    -4.060229310
 C       -7.701702262    12.809773514    -3.165590048
 N      -10.239041616    11.663278021    -5.665455192
 C       -9.905871359    11.288869962    -7.054064020
 C      -11.200302122    12.771935188    -5.567483639
 C       -9.442468613    12.431694727    -7.974489721
 C       -8.061019898    13.014197915    -7.622246833
 N       -6.905991851    12.192916784    -8.020468286
 C       -6.861726364    11.723602842    -9.339238347
 C       -7.327231405    12.550008642   -10.386951438
 C       -7.292378429    12.105438478   -11.697742364
 C       -6.755378515    10.851935833   -12.026421198
 C       -6.268331132    10.048549400   -10.991530124
 C       -6.309979682    10.470205618    -9.669319032
 C       -6.388218591    11.312437830    -6.965812138
 C       -6.743685546    10.431751224   -13.428391047
 C       -6.257510963     9.259699072   -13.857989386
Si       -6.223992104     8.696496051   -15.600182260
 C       -7.201105945     7.135541643   -15.729539068
 C       -8.089083176     6.762597242   -14.713650129
 C       -8.823570776     5.583624428   -14.816975908
 C       -8.694786865     4.754575945   -15.938741326
 C       -7.810783726     5.132866536   -16.953731476
 C       -7.072111174     6.310947692   -16.852385773
 C       -9.485593066     3.529630024   -16.001096573
 C       -9.453873232     2.649316933   -17.015900202
 C      -10.244743026     1.424465270   -17.078049480
 C      -11.128556392     1.044816520   -16.064852652
 C      -11.865158251    -0.135624320   -16.166120162
 C      -11.731781689    -0.963362850   -17.284444332
 C      -10.846193063    -0.585085408   -18.302931110
 C      -10.113923173     0.594295044   -18.199918931
Si      -12.691902265    -2.531327777   -17.448445262
 C      -13.695913974    -2.861087254   -15.906759557
 C      -13.839485742    -2.377921433   -18.915443728
 C      -11.497081260    -3.944013086   -17.715498495
 C       -6.970533304     9.962432453   -16.751596264
 C       -4.445229545     8.372582844   -16.071581079
 C       -4.469939257    12.885340876     1.509455903
 C       -2.646529781    13.747084749    -0.785378127
 C       -0.628097693    -0.866112964    -1.531763878
 C       -0.604167247    -0.889865477     1.529263968
 H        1.206046468     2.680494063    -0.643580501
 H        0.303803604     4.934235828    -0.630928007
 H       -3.526404598     3.439110362     0.641775441
 H       -2.666973160     1.164580739     0.637702341
 H       -3.303241952     5.738092635     0.327817070
 H       -0.534686514     6.779905863    -0.588076486
 H       -0.319249203     9.083341768    -0.904438924
 H       -1.189801209    11.355192742    -0.905027773
 H       -5.047668311     9.825190296     0.409917961
 H       -4.140180771     7.573381060     0.378401073
 H       -5.824590346    13.568861430    -1.391795836
 H       -5.348504153    10.557123792    -2.071196401
 H       -6.792677844     9.558029182    -3.553640195
 H       -8.741923591     9.602114289    -5.069914826
 H       -9.301968894    13.792624661    -4.196001189
 H       -7.435091875    13.710815710    -2.611990152
 H      -12.077880777    12.540758996    -6.196337806
 H      -10.800755811    13.751616389    -5.872811014
 H      -11.558841317    12.846796320    -4.524963684
 H       -6.416175332    11.833309288    -5.990417042
 H       -5.326554736    11.082063311    -7.171642803
 H       -6.947140971    10.368324121    -6.861347292
 H       -7.712767240    13.541009838   -10.166748523
 H       -7.674334679    12.751534255   -12.488772123
 H       -5.844656979     9.068837497   -11.219370460
 H       -5.925382398     9.812581900    -8.896365036
 H       -7.179569845    11.177236004   -14.106645755
 H       -5.821795414     8.533084154   -13.153128152
 H       -8.233572823     7.373651644   -13.816377244
 H       -9.506587821     5.307293423   -14.015809840
 H       -7.692288299     4.506332439   -17.835717370
 H       -6.395899619     6.554006536   -17.676526411
 H      -10.135040542     3.360127236   -15.137123166
 H       -8.804886599     2.818528843   -17.880212028
 H      -11.250520038     1.671334666   -15.182953243
 H      -12.541123746    -0.378582216   -15.341766550
 H      -10.701439120    -1.192548759   -19.200729220
 H       -9.431752385     0.872483381   -19.001229687
 H       -9.136217632    10.485237870    -7.041432378
 H      -10.826287830    10.825110554    -7.484260300
 H       -9.433307143    12.056107560    -9.019694143
 H      -10.188604246    13.248145006    -7.970390482
 H       -7.943496937    14.009172305    -8.115665426
 H       -7.999141254    13.214533187    -6.527718360
 H        2.267066709    -1.028011027     0.073490609
 H        2.271130425     0.572144117     0.855594004
 H        2.278325651     0.445610052    -0.923793832
 H      -14.231281507    -3.824752382   -15.979081438
 H      -14.453682164    -2.075256573   -15.739101075
 H      -13.054148795    -2.907322921   -15.008704017
 H      -14.550849927    -1.542818341   -18.781362595
 H      -13.280486526    -2.187157158   -19.848676881
 H      -14.430413760    -3.298997215   -19.062101955
 H      -10.790172758    -4.033716976   -16.870611878
 H      -12.028315209    -4.907455818   -17.808883272
 H      -10.898971211    -3.802683565   -18.632846529
 H       -8.023959195    10.171501739   -16.490103098
 H       -6.417875563    10.918020282   -16.713124390
 H       -6.956530881     9.610767563   -17.798687548
 H       -4.004430316     7.572074674   -15.450117233
 H       -4.353370701     8.063212844   -17.127053260
 H       -3.826182880     9.277809015   -15.933881357
 H       -5.247788847    12.179811792     1.853755664
 H       -3.629671105    12.825069834     2.224960547
 H       -4.892418938    13.903363278     1.575017217
 H       -2.311441820    13.549350171    -1.820018521
 H       -3.065726669    14.769092789    -0.765788437
 H       -1.754229084    13.743423357    -0.134397159
 H       -0.283481556    -0.357490107    -2.450340727
 H       -0.275419758    -1.911515643    -1.576754978
 H       -1.732297600    -0.884036636    -1.560661347
 H       -0.287866420    -0.362724457     2.447845469
 H       -1.705370050    -0.964030930     1.552191930
 H       -0.201654540    -1.917064213     1.580111282

