139   

Si        0.000000000     0.000000000     0.000000000
 C        1.870400832     0.000000000     0.000000000
 C       -0.591683189     1.746808471     0.000000000
 C       -0.235542385     2.593601741    -1.056812486
 C       -0.669255750     3.917551163    -1.081036507
 C       -1.463187939     4.427479585    -0.049208462
 C       -1.817255155     3.579073099     1.007136131
 C       -1.388658276     2.253518805     1.032141879
 C       -1.939431161     5.806277749    -0.033642478
 C       -1.674719952     6.717158826    -0.985542763
 C       -2.152627035     8.095342893    -0.966868012
 C       -1.804013503     8.946622967    -2.024599021
 C       -2.238493927    10.268287291    -2.046263994
 C       -3.005460015    10.780583651    -0.989975917
 C       -3.342853966     9.937520260     0.071578188
 C       -2.923079606     8.607149557     0.080033767
Si       -3.565211781    12.537273420    -1.050323140
 C       -4.604100119    12.755088568    -2.544443727
 C       -4.869491419    11.761615127    -3.402698985
 C       -5.691854248    11.890232256    -4.605311393
 C       -5.874710250    10.748803154    -5.404214711
 C       -6.640662318    10.802885991    -6.554182985
 C       -7.210585001    12.024712671    -6.968342796
 C       -7.028651168    13.166593283    -6.175686962
 C       -6.292927168    13.086224123    -4.995687798
 N       -7.985937176    12.013305921    -8.157142117
 C       -7.282597658    11.523691411    -9.357116551
 C       -8.804753957    13.209321350    -8.409361678
 C       -6.324186354    12.523355236   -10.035995170
 C       -5.066890533    12.827305546    -9.201229635
 N       -4.295570412    11.615950562    -8.847163435
 C       -3.329710498    11.756965567    -7.828938451
 C       -3.354421377    12.835217546    -6.920383232
 C       -2.391120635    12.947204071    -5.929610747
 C       -1.397230635    11.972594469    -5.766300843
 C       -1.396683125    10.882242657    -6.640728730
 C       -2.348499547    10.760712584    -7.643611646
 C       -3.856296439    10.829959332   -10.015086633
 C       -0.404253452    12.140506663    -4.703660317
 C        0.588456973    11.275456103    -4.455134692
Si        1.848533316    11.450550577    -3.136583844
 C        1.727731234    10.002216818    -2.001863878
 C        2.338979881     8.788853504    -2.342790420
 C        2.252482336     7.690726338    -1.491681050
 C        1.563387810     7.780360098    -0.275022890
 C        0.952749422     8.991232534     0.061708421
 C        1.026901611    10.089291757    -0.795063690
 C        1.501267138     6.601587031     0.581820044
 C        0.864098509     6.550693745     1.763614176
 C        0.803953310     5.369917672     2.618158292
 C        1.416320632     4.161331278     2.276863136
 C        1.333834933     3.056374285     3.123812927
 C        0.624538639     3.134424297     4.325996432
 C        0.001376671     4.342428072     4.666477532
 C        0.088422884     5.444570316     3.820635850
Si        0.500593576     1.687400704     5.463241941
 C        1.734147776     0.368087260     4.979123552
 C        0.843539744     2.236595124     7.216124110
 C       -1.231641023     0.994758844     5.330437943
 C        3.535425169    11.479407423    -3.945538468
 C        1.621215556    13.034835416    -2.172515736
 C       -4.570427178    12.979941887     0.460646264
 C       -2.076900146    13.661338082    -1.169324225
 C       -0.636423459    -0.846787146    -1.540640908
 C       -0.620557903    -0.917435937     1.505292074
 H        0.384987335     2.253208336    -1.889852024
 H       -0.380849063     4.557311976    -1.913061585
 H       -2.427829106     3.957876229     1.824938406
 H       -1.692108914     1.641786297     1.885898280
 H       -2.550684446     6.068011235     0.834752090
 H       -1.056802204     6.458898406    -1.850455550
 H       -1.189099876     8.571861020    -2.841814871
 H       -1.948808958    10.880535294    -2.909836138
 H       -3.939898182    10.281669465     0.919264701
 H       -3.203018326     7.967999402     0.914915804
 H       -5.004670273    13.767133255    -2.690581730
 H       -4.477035590    10.740269310    -3.268281204
 H       -5.410216536     9.805164994    -5.113090344
 H       -6.794551701     9.905437499    -7.149488914
 H       -7.458704477    14.118988629    -6.465254503
 H       -6.176239674    13.979780767    -4.382871160
 H       -9.457131753    13.022017524    -9.279047381
 H       -8.226442642    14.126851861    -8.598650830
 H       -9.464994260    13.381097212    -7.539796461
 H       -4.585607997    10.896882476   -10.836693545
 H       -3.801602100     9.763743657    -9.727316380
 H       -2.874238602    11.145969472   -10.404049367
 H       -4.130269273    13.594152444    -6.980493545
 H       -2.426708448    13.801874543    -5.252249516
 H       -0.644334389    10.099917910    -6.531498005
 H       -2.324894119     9.884701879    -8.283394044
 H       -0.550988852    13.059101202    -4.119701233
 H        0.708535856    10.361811645    -5.058639108
 H        2.895838480     8.661401126    -3.274547783
 H        2.728406532     6.754207751    -1.774586963
 H        0.399281320     9.083999289     0.994878957
 H        0.512412209    11.003466354    -0.484075798
 H        2.020091659     5.721639418     0.190411575
 H        0.337795103     7.427253866     2.152406747
 H        1.961931341     4.070234855     1.338849530
 H        1.837783285     2.140399428     2.804208672
 H       -0.567936306     4.460540473     5.591940428
 H       -0.403353330     6.374501885     4.099248219
 H       -6.713084405    10.602492542    -9.086264766
 H       -8.064476381    11.207940410   -10.085235768
 H       -6.045041820    12.130773403   -11.031827464
 H       -6.848982015    13.477227219   -10.236285018
 H       -4.431084274    13.563647919    -9.741506158
 H       -5.402354977    13.314984214    -8.251732718
 H        2.271131913    -1.028122583    -0.021250186
 H        2.272593200     0.496857072     0.901290161
 H        2.273363072     0.533578631    -0.878637317
 H        1.689045828    -0.492664580     5.669324244
 H        2.767611326     0.758010584     5.003677366
 H        1.545470204    -0.015175246     3.960367159
 H        1.845736130     2.694778308     7.301632283
 H        0.108732567     2.984386847     7.561826757
 H        0.806471558     1.385462611     7.918408079
 H       -1.454234265     0.665685095     4.299110091
 H       -1.369643142     0.125393188     5.996107629
 H       -1.988597799     1.750402375     5.605692472
 H        3.708973972    10.586833041    -4.570500480
 H        3.648373448    12.364525630    -4.596761891
 H        4.338626404    11.517753611    -3.188172653
 H        0.630671437    13.081358802    -1.684831667
 H        2.385301370    13.127747310    -1.379650971
 H        1.714367578    13.919006265    -2.827510217
 H       -5.472175400    12.346039282     0.542504729
 H       -3.985503872    12.854078608     1.388300774
 H       -4.911361539    14.029472628     0.423472428
 H       -1.516190346    13.478844276    -2.104498178
 H       -2.373948108    14.724034230    -1.160847057
 H       -1.387346768    13.499437882    -0.322036849
 H       -0.283844125    -0.341117007    -2.456600621
 H       -0.303733025    -1.897952262    -1.590202193
 H       -1.741218561    -0.844933979    -1.569164362
 H       -0.251194492    -0.460583337     2.440404509
 H       -1.724303034    -0.922918567     1.547476745
 H       -0.285432481    -1.969578388     1.496976850

