139   

Si        0.000000000     0.000000000     0.000000000
 C        1.869190638     0.000000000     0.000000000
 C       -0.655758231     1.725457608     0.000000000
 C        0.165491602     2.819244978     0.289607119
 C       -0.350038977     4.115468375     0.284244964
 C       -1.696942220     4.347194440    -0.005899109
 C       -2.519717810     3.249334984    -0.292463835
 C       -2.007874169     1.954727695    -0.288631718
 C       -2.281491508     5.684122139    -0.023605572
 C       -1.607522445     6.818562542     0.231020786
 C       -2.196307909     8.153904565     0.212199206
 C       -1.378619216     9.255820457     0.497102450
 C       -1.896684181    10.548469172     0.490843304
 C       -3.249845265    10.767961047     0.205457457
 C       -4.068469241     9.670211019    -0.079125538
 C       -3.544786912     8.377861451    -0.078507881
Si       -3.943773955    12.477782648     0.195229915
 C       -5.760622578    12.361716975     0.399645943
 C       -6.672303960    12.808496637    -0.474069837
 C       -8.118942654    12.699430872    -0.279118962
 C       -8.978341817    13.204695302    -1.265321365
 C      -10.354389129    13.126180132    -1.128654496
 C      -10.926944395    12.573725576     0.038606266
 C      -10.064150021    12.065838034     1.029757147
 C       -8.687360967    12.111807535     0.854224202
 N      -12.320732314    12.498444460     0.167963901
 C      -13.136390978    13.519354897    -0.510672554
 C      -12.857214906    12.054719819     1.462169003
 C      -12.817598385    14.974926418    -0.129074404
 C      -13.438647763    15.427248078     1.203482850
 N      -14.881649638    15.723594763     1.162454761
 C      -15.332581323    16.628516478     0.188668480
 C      -14.519225189    17.725788008    -0.171768507
 C      -14.946378230    18.629440568    -1.130228926
 C      -16.208453952    18.510572712    -1.730408145
 C      -17.023562715    17.441497971    -1.350029846
 C      -16.604729293    16.515149271    -0.403367258
 C      -15.745955400    14.574601498     1.466808044
 C      -16.610328858    19.493418227    -2.738315277
 C      -17.788931219    19.477094579    -3.374566835
Si      -18.333141779    20.684306657    -4.640435179
 C      -18.665711754    19.764364911    -6.205182556
 C      -18.026515522    18.543508638    -6.454395026
 C      -18.274364318    17.845781021    -7.633753011
 C      -19.159338493    18.352697766    -8.594433823
 C      -19.792280708    19.573650762    -8.344089136
 C      -19.548640035    20.273575434    -7.162832682
 C      -19.386013652    17.584312491    -9.814257885
 C      -20.208655877    17.954620932   -10.810237318
 C      -20.434699072    17.185551388   -12.029730481
 C      -19.801574223    15.964788789   -12.279557965
 C      -20.046867222    15.262670241   -13.459051395
 C      -20.940456608    15.761847591   -14.412732717
 C      -21.577293210    16.984195276   -14.164208929
 C      -21.323994504    17.687482811   -12.989052686
Si      -21.266695166    14.833772584   -15.975176791
 C      -21.048073770    12.999090542   -15.689683994
 C      -23.015820888    15.150873833   -16.554182965
 C      -20.055058284    15.421075374   -17.270696866
 C      -19.895212599    21.503690848    -4.024776910
 C      -17.026344611    21.974581332    -4.976268916
 C       -3.260308953    13.457597179     1.632086666
 C       -3.479510751    13.298205401    -1.416303159
 C       -0.605018213    -0.887702270    -1.530144811
 C       -0.626498900    -0.868323295     1.531496718
 H        1.226956885     2.701145925     0.524094039
 H        0.311475628     4.949985835     0.510163800
 H       -3.572135180     3.407733638    -0.521283059
 H       -2.698126942     1.138641489    -0.519948902
 H       -3.347839840     5.712998994    -0.267400153
 H       -0.541524174     6.791558592     0.474674436
 H       -0.325662341     9.102596459     0.725616706
 H       -1.211451791    11.369237757     0.718955480
 H       -5.133082092     9.784115689    -0.310528628
 H       -4.201473531     7.539944160    -0.306136352
 H       -6.065300472    11.877168912     1.341419099
 H       -6.398984156    13.296788225    -1.419016218
 H       -8.559033700    13.657944505    -2.164627335
 H      -10.989319102    13.493892395    -1.929699901
 H      -10.459151186    11.624170017     1.938336031
 H       -8.042916715    11.693695653     1.629815105
 H      -13.959387740    12.048789920     1.436306589
 H      -12.529191114    12.676352485     2.311736315
 H      -12.538282340    11.010690146     1.644931259
 H      -15.293453946    13.962266509     2.264501728
 H      -15.948224632    13.927160514     0.597880318
 H      -16.711103631    14.945785869     1.861650508
 H      -13.551381476    17.866491465     0.301481155
 H      -14.292812637    19.456812269    -1.409622461
 H      -18.010838467    17.324381953    -1.800698824
 H      -17.270454071    15.699600534    -0.141725219
 H      -15.843971034    20.256729916    -2.927632188
 H      -18.539775128    18.699256747    -3.159975185
 H      -17.324846787    18.100020870    -5.739938081
 H      -17.771830439    16.896250932    -7.808854793
 H      -20.484582700    19.989278940    -9.073889907
 H      -20.074589849    21.221648163    -7.021585069
 H      -18.823526975    16.647842097    -9.875391991
 H      -20.771357281    18.890818340   -10.749376515
 H      -19.106469028    15.550935350   -11.551091797
 H      -19.519216627    14.315015625   -13.598505944
 H      -22.285706928    17.423279868   -14.872085345
 H      -21.827090185    18.636990905   -12.815413201
 H      -12.993735157    13.383245089    -1.610567582
 H      -14.210863939    13.297263677    -0.328832583
 H      -11.717974375    15.116189139    -0.079817004
 H      -13.158118368    15.644152905    -0.946143500
 H      -13.250093548    14.667993195     1.993650022
 H      -12.922029991    16.353426865     1.556304556
 H        2.266823842    -1.029133230    -0.056802312
 H        2.277868778     0.460619680     0.916665531
 H        2.271251807     0.558033299    -0.864746210
 H      -21.301526393    12.421375107   -16.596351257
 H      -21.702262354    12.640761447   -14.874295326
 H      -20.007965165    12.747197267   -15.418499845
 H      -23.750290589    14.885550676   -15.772264805
 H      -23.175362714    16.211439340   -16.815821769
 H      -23.254425294    14.550670157   -17.450225370
 H      -19.011118934    15.244908417   -16.954466045
 H      -20.206632014    14.897161977   -18.230698787
 H      -20.162241030    16.504311933   -17.460085237
 H      -20.712266461    20.770414373    -3.899086233
 H      -19.730232714    21.986609247    -3.044219648
 H      -20.249711177    22.281860396    -4.722778653
 H      -16.088890882    21.513470192    -5.337149412
 H      -17.358570081    22.689446478    -5.750465183
 H      -16.788432885    22.554463650    -4.066792975
 H       -3.447250612    12.945463232     2.593218737
 H       -2.170562905    13.607571705     1.540821040
 H       -3.730167889    14.456081399     1.691774238
 H       -3.876549345    12.737196585    -2.282069488
 H       -3.873551071    14.328389346    -1.472714225
 H       -2.382715475    13.353251962    -1.537088757
 H       -0.285834620    -0.362114789    -2.448584030
 H       -0.206749403    -1.916493951    -1.580281187
 H       -1.706591231    -0.956565978    -1.554420618
 H       -0.280358714    -0.360759709     2.450111095
 H       -1.730583002    -0.885756598     1.561908406
 H       -0.273999995    -1.913745559     1.574835865

