139   

Si        0.000000000     0.000000000     0.000000000
 C        1.869269354     0.000000000     0.000000000
 C       -0.653087659     1.726617138     0.000000000
 C        0.188103786     2.826702937     0.191221498
 C       -0.326634896     4.123256553     0.187522492
 C       -1.691824477     4.349425931    -0.005830352
 C       -2.534082786     3.245272222    -0.195155094
 C       -2.023448271     1.950133929    -0.191001973
 C       -2.274470229     5.687392236    -0.017423810
 C       -1.579481666     6.824998617     0.152580903
 C       -2.160022251     8.163849708     0.141356078
 C       -3.525662647     8.391826305    -0.051961631
 C       -4.037987748     9.688604919    -0.055283099
 C       -3.191254200    10.786787423     0.128878608
 C       -1.822917627    10.562441272     0.322876820
 C       -1.315617469     9.265448528     0.331887505
Si       -3.865510249    12.504917779     0.125140010
 C       -2.485394097    13.662847517    -0.203483462
 C       -2.078135138    14.642778543     0.614195539
 C       -0.969117646    15.550777867     0.317913655
 C       -0.632646429    16.541151085     1.252526310
 C        0.407862536    17.424514543     1.019624807
 C        1.130080378    17.374209604    -0.194259652
 C        0.793155133    16.379452649    -1.133411854
 C       -0.225219954    15.475512208    -0.863106538
 N        2.178689614    18.274936844    -0.412342107
 C        2.042600189    19.638977323     0.121715942
 C        2.906722974    18.182860861    -1.683710878
 C        0.738253879    20.368796619    -0.249843352
 C        0.698297201    20.912459029    -1.689112356
 N        1.620170671    22.024486405    -1.995998353
 C        2.933268517    21.633572784    -2.361459704
 C        3.073718365    20.860183768    -3.531806789
 C        4.328569175    20.445120503    -3.945213928
 C        5.481404534    20.814250237    -3.234091780
 C        5.338543352    21.605987604    -2.092554802
 C        4.083988605    22.024958797    -1.661443324
 C        1.519092457    23.151262488    -1.056288589
 C        6.782521362    20.346591839    -3.716951906
 C        7.952430139    20.629191558    -3.129032846
Si        9.579901336    20.043203481    -3.734502327
 C        9.332402475    19.024616475    -5.252678958
 C        9.393777540    17.628572241    -5.207943100
 C        9.204369672    16.873019897    -6.364963924
 C        8.936947263    17.493944505    -7.587893802
 C        8.868567225    18.893161175    -7.629093165
 C        9.062664364    19.650401905    -6.477098162
 C        8.732018040    16.744679587    -8.823133418
 C        8.771195252    15.404954358    -8.920559609
 C        8.566242380    14.655650628   -10.155931056
 C        8.304213350    15.276965325   -11.380095387
 C        8.114653620    14.521437354   -12.536742099
 C        8.189940301    13.125139549   -12.495786011
 C        8.452347838    12.500101149   -11.270108379
 C        8.634525298    13.256805803   -10.115199028
Si        7.939718450    12.120008293   -14.024507479
 C        8.419392713    13.113765322   -15.533602312
 C        8.997134275    10.579958703   -13.952918205
 C        6.135510723    11.645727314   -14.127426572
 C       10.652232740    21.519745826    -4.133882515
 C       10.388514300    19.034378872    -2.385908099
 C       -5.122736209    12.697651548    -1.243896085
 C       -4.667099881    12.832332602     1.779405734
 C       -0.609317030    -0.882124724    -1.531412979
 C       -0.624782126    -0.870386928     1.531013606
 H        1.264541260     2.713633505     0.346602134
 H        0.350386528     4.962470381     0.337961805
 H       -3.600876233     3.399262124    -0.346992106
 H       -2.729316449     1.128777986    -0.342707369
 H       -3.355987935     5.714000227    -0.179365131
 H       -0.497693831     6.797630037     0.314731494
 H       -4.203066946     7.553300629    -0.201605686
 H       -5.114056585     9.804602092    -0.209739282
 H       -1.115865429    11.385547806     0.473339413
 H       -0.249438096     9.109711676     0.486917787
 H       -1.990897588    13.490387858    -1.173269478
 H       -2.552252579    14.840821867     1.584595703
 H       -1.190736416    16.611427464     2.186702947
 H        0.670155439    18.155088667     1.778839668
 H        1.323898359    16.305056884    -2.077079370
 H       -0.455561977    14.704658915    -1.600697678
 H        3.755783870    18.892041061    -1.685849184
 H        2.284172954    18.397012588    -2.567631436
 H        3.339855993    17.170528587    -1.784347519
 H        0.461819037    23.461586481    -0.984724821
 H        2.082814427    24.010632368    -1.462102045
 H        1.888930103    22.935703632    -0.041844599
 H        2.190500608    20.602157956    -4.113169427
 H        4.422543419    19.838378382    -4.847247168
 H        6.220017719    21.908099550    -1.525760433
 H        4.007917529    22.642482223    -0.771635675
 H        6.709507510    19.729916673    -4.625144203
 H        8.003871263    21.248153881    -2.220556512
 H        9.594553502    17.085448582    -4.280079096
 H        9.264715006    15.787774573    -6.305088811
 H        8.661913000    19.396490325    -8.571864189
 H        8.997845162    20.738657977    -6.570952276
 H        8.536722180    17.361541379    -9.705312966
 H        8.967069303    14.787558939    -8.038692756
 H        8.245637203    16.362318540   -11.440290420
 H        7.911790108    15.064553201   -13.464014903
 H        8.522845940    11.412746922   -11.177059865
 H        8.835290779    12.752264546    -9.171734940
 H        2.121918291    19.568857169     1.233600033
 H        2.923318039    20.240176668    -0.201723248
 H       -0.123605530    19.681567519    -0.112698527
 H        0.567759830    21.190657170     0.470240148
 H        0.879813991    20.080865580    -2.406171570
 H       -0.330711509    21.287447183    -1.907738061
 H        2.267283333    -1.029558877    -0.045274036
 H        2.276600219     0.470473840     0.912416178
 H        2.272258785     0.548348419    -0.870331618
 H        8.356094829    12.501690364   -16.450967645
 H        9.456928113    13.485982483   -15.454475560
 H        7.760341538    13.988103341   -15.675189309
 H       10.062302970    10.833247569   -13.802337441
 H        8.693576869     9.911866350   -13.128123109
 H        8.923268280    10.000881957   -14.890613157
 H        5.486187929    12.538873829   -14.166723605
 H        5.928639980    11.042327817   -15.028723262
 H        5.824408702    11.052176787   -13.248971664
 H       10.166181649    22.190457700    -4.864916356
 H       10.869110906    22.117420291    -3.230840365
 H       11.619550456    21.203189648    -4.564758677
 H        9.737383745    18.206336425    -2.052081683
 H       11.341621504    18.595026425    -2.731371565
 H       10.611195036    19.654251940    -1.499025503
 H       -4.690875166    12.433682033    -2.226226508
 H       -6.002913098    12.051615045    -1.082528967
 H       -5.482163666    13.740535794    -1.309604491
 H       -3.940049729    12.728509366     2.605602148
 H       -5.089385312    13.851576453     1.828254089
 H       -5.488991162    12.120602007     1.974878286
 H       -0.275618389    -0.364628568    -2.449275666
 H       -0.229023858    -1.917822468    -1.576218624
 H       -1.711916458    -0.930722164    -1.562529816
 H       -0.278745715    -0.362494346     2.449597411
 H       -1.728702666    -0.890121913     1.562340820
 H       -0.270192583    -1.915129793     1.573704306

