139   

Si        0.000000000     0.000000000     0.000000000
 C        1.869256239     0.000000000     0.000000000
 C       -0.650571657     1.727589800     0.000000000
 C        0.161763257     2.810582075    -0.349816406
 C       -0.345873548     4.109865115    -0.344553848
 C       -1.676116549     4.355667669     0.005453510
 C       -2.490178663     3.268677298     0.351597859
 C       -1.986153362     1.970895605     0.347439247
 C       -2.251092485     5.696708945     0.025313876
 C       -1.582673656     6.820923309    -0.283357972
 C       -2.159576559     8.161194949    -0.262870778
 C       -1.347635656     9.250103432    -0.608370374
 C       -1.854810423    10.546518051    -0.602933175
 C       -3.186287171    10.787361145    -0.238927355
 C       -3.997163036     9.702540742     0.107958386
 C       -3.489201486     8.403733093     0.091795755
Si       -3.843855085    12.511854149    -0.236704924
 C       -4.075421419    13.056372483    -1.974718830
 C       -3.794546816    12.281668373    -3.031088079
 C       -3.963937046    12.675321058    -4.431557695
 C       -3.623380528    11.746297506    -5.427235125
 C       -3.760757416    12.058087387    -6.769830310
 C       -4.290982292    13.304598994    -7.153871904
 C       -4.634368765    14.235700848    -6.164839709
 C       -4.450842338    13.925464703    -4.820278456
 N       -4.401987282    13.553714680    -8.552613051
 C       -5.372433513    12.673420714    -9.238794636
 C       -4.549237517    14.968333355    -8.935160787
 C       -6.848575977    13.016950467    -8.960982934
 C       -7.743773919    11.770693154    -8.828901454
 N       -7.745888857    11.129645215    -7.496417374
 C       -7.899462382    12.010129213    -6.402018603
 C       -8.892479213    13.010122949    -6.470727094
 C       -9.071861092    13.891190344    -5.416793239
 C       -8.283825934    13.806464397    -4.260554522
 C       -7.322826960    12.794947732    -4.183957982
 C       -7.145528085    11.890925405    -5.223126436
 C       -6.730471492    10.074435349    -7.348328138
 C       -8.511133365    14.760249220    -3.173674427
 C       -7.812785159    14.762203320    -2.031285787
Si       -8.039891566    15.919612265    -0.632862288
 C       -8.476295814    14.901304145     0.843973866
 C       -9.001734041    13.615079050     0.680839083
 C       -9.333704334    12.840047010     1.791008581
 C       -9.146587476    13.331239004     3.086067974
 C       -8.621077408    14.620359911     3.246508925
 C       -8.291127409    15.398360165     2.139445216
 C       -9.479929445    12.555132089     4.276026235
 C       -9.988728893    11.311425714     4.257963542
 C      -10.323164842    10.532574838     5.445714773
 C      -10.140930197    11.019609510     6.743046746
 C      -10.474512529    10.240245405     7.850119254
 C      -11.006389016     8.956967129     7.683962715
 C      -11.190534921     8.467179865     6.384902313
 C      -10.849863409     9.244776224     5.280824525
Si      -11.448784752     7.923300536     9.148516857
 C      -11.949614012     9.018345290    10.578624399
 C      -12.875477970     6.791539752     8.725808140
 C       -9.954206019     6.907143459     9.622824141
 C       -6.419511108    16.807662282    -0.352061408
 C       -9.404965181    17.150296975    -0.950825099
 C       -5.475528357    12.584944171     0.664237927
 C       -2.626601156    13.655157670     0.600836741
 C       -0.628122608    -0.865722765    -1.532212313
 C       -0.604610675    -0.890348829     1.528756543
 H        1.210295999     2.681962818    -0.632121428
 H        0.308663397     4.935909635    -0.617120243
 H       -3.529514690     3.437984872     0.627550461
 H       -2.668990328     1.163597749     0.626590849
 H       -3.304235390     5.738152632     0.319244991
 H       -0.529436176     6.780449131    -0.576081593
 H       -0.308892929     9.082768249    -0.886791218
 H       -1.175829460    11.355832594    -0.887956280
 H       -5.044601537     9.829655724     0.398674094
 H       -4.141527613     7.575823680     0.363522564
 H       -4.461953493    14.079287059    -2.094651776
 H       -3.405958635    11.256883161    -2.923611135
 H       -3.227784891    10.770473456    -5.142768444
 H       -3.446751949    11.350680594    -7.534263102
 H       -5.055524164    15.200085434    -6.433389143
 H       -4.716644856    14.667411283    -4.065526615
 H       -4.439183424    15.050413984   -10.030336673
 H       -3.730034258    15.553175747    -8.479947684
 H       -5.509743876    15.423443046    -8.648105687
 H       -6.741477514     9.420965061    -8.235744764
 H       -6.997193584     9.441665653    -6.481185048
 H       -5.705607911    10.455949952    -7.201661309
 H       -9.524410781    13.086421372    -7.350832951
 H       -9.842150002    14.658797786    -5.490737457
 H       -6.693864450    12.699761823    -3.293856050
 H       -6.382244543    11.123240324    -5.121449438
 H       -9.313180831    15.478440097    -3.384271467
 H       -7.011283414    14.023278055    -1.856381771
 H       -9.169192482    13.177476519    -0.309903672
 H       -9.742699084    11.842757858     1.638750169
 H       -8.468770813    15.021103036     4.246792593
 H       -7.886189260    16.396568918     2.325476439
 H       -9.284457423    13.064032211     5.224374025
 H      -10.184689044    10.803679141     3.308729447
 H       -9.733602588    12.016933446     6.899662786
 H      -10.307001231    10.675280596     8.839427264
 H      -11.602638850     7.472634619     6.193085486
 H      -10.998917162     8.845476146     4.279240689
 H       -5.161254039    12.738853168   -10.329864502
 H       -5.153741900    11.622264646    -8.949406223
 H       -6.924847691    13.626952791    -8.035874488
 H       -7.240676434    13.666375025    -9.764279478
 H       -8.801672799    12.051054809    -9.051157080
 H       -7.468802377    11.012816490    -9.593692965
 H        2.267354594    -1.028382002     0.065915071
 H        2.270774968     0.566037251     0.859917457
 H        2.278097736     0.452727089    -0.920429309
 H      -12.282025482     8.417334258    11.443700206
 H      -12.784583058     9.685600636    10.297708895
 H      -11.114401964     9.654328748    10.920463808
 H      -13.748923683     7.365930468     8.367325450
 H      -12.605360860     6.068003456     7.936987920
 H      -13.199847811     6.211564818     9.608120419
 H       -9.095441891     7.551965820     9.883017941
 H      -10.165058686     6.263179342    10.494547341
 H       -9.633341549     6.252196724     8.792857942
 H       -5.610659027    16.100774561    -0.092772891
 H       -6.104051729    17.354406576    -1.259190251
 H       -6.496055590    17.541567383     0.468490220
 H      -10.373088877    16.643121553    -1.117278541
 H       -9.537778809    17.834684976    -0.093942838
 H       -9.193047757    17.768542728    -1.841134343
 H       -6.298008776    12.132240037     0.081106150
 H       -5.423376548    12.053726140     1.632651623
 H       -5.770388659    13.625729067     0.891505451
 H       -1.657762849    13.678918257     0.071668403
 H       -3.007462704    14.690765191     0.642188786
 H       -2.428870224    13.331406153     1.638852004
 H       -0.282017006    -0.357732046    -2.450524101
 H       -0.276919415    -1.911552912    -1.576608076
 H       -1.732261160    -0.881836335    -1.562132165
 H       -0.288953896    -0.363524664     2.447798896
 H       -1.705866800    -0.964165977     1.551009073
 H       -0.202220721    -1.917511861     1.579715526

