139   

Si        0.000000000     0.000000000     0.000000000
 C        1.869203446     0.000000000     0.000000000
 C       -0.653846497     1.726390743     0.000000000
 C        0.171442122     2.818800721    -0.283423023
 C       -0.341014645     4.116206479    -0.278600493
 C       -1.688330077     4.350540756     0.007705016
 C       -2.514999895     3.254227739     0.288736913
 C       -2.006629324     1.958241875     0.283308159
 C       -2.269314671     5.688968930     0.024582920
 C       -1.591857438     6.821981901    -0.227118493
 C       -2.176974378     8.158784945    -0.209160575
 C       -1.356907894     9.258596298    -0.490443192
 C       -1.872464281    10.553222487    -0.484676136
 C       -3.221323014    10.778440579    -0.190366546
 C       -4.043177529     9.680111559     0.092860957
 C       -3.525827690     8.386321896     0.081518437
Si       -3.944978150    12.475493382    -0.171662890
 C       -5.280980315    12.600787182    -1.419250509
 C       -5.671245032    11.603707789    -2.224311532
 C       -6.739709622    11.712930366    -3.218222228
 C       -7.052371253    10.591352742    -4.000783007
 C       -8.053934751    10.639234433    -4.955693149
 C       -8.755395440    11.841503087    -5.196590545
 C       -8.441804247    12.967868476    -4.412329573
 C       -7.464504128    12.888535525    -3.427841365
 N       -9.767867482    11.872580433    -6.168244326
 C       -9.604746385    11.014909688    -7.355233972
 C      -10.401670630    13.170014147    -6.441585116
 C       -8.292090071    11.210873716    -8.133207083
 C       -8.287141794    12.442381836    -9.054836713
 N       -8.974411246    12.265269271   -10.345465759
 C       -8.551797866    11.217345864   -11.176240325
 C       -7.201176633    10.803767071   -11.156065069
 C       -6.772075911     9.770179474   -11.971867375
 C       -7.646292056     9.140679917   -12.869637277
 C       -8.974801282     9.572018464   -12.910180211
 C       -9.427351191    10.595646988   -12.087848646
 C      -10.413543086    12.561659644   -10.311311216
 C       -7.139391320     8.053307316   -13.708307551
 C       -7.881206302     7.381752983   -14.598690467
Si       -7.285053885     6.017238153   -15.665217632
 C       -7.514991045     6.511499259   -17.428323131
 C       -7.631389904     7.862376006   -17.777442370
 C       -7.804893342     8.233966711   -19.108500094
 C       -7.858710081     7.267764780   -20.121500323
 C       -7.737334694     5.920257342   -19.769479674
 C       -7.566184208     5.544433699   -18.437766046
 C       -8.041914657     7.706240308   -21.501395002
 C       -8.112747000     6.884325259   -22.562207454
 C       -8.295925901     7.322207737   -23.942191485
 C       -8.417488004     8.668074005   -24.296729016
 C       -8.591437017     9.041604456   -25.629670656
 C       -8.649736437     8.074961514   -26.637460504
 C       -8.528653451     6.723742057   -26.284870613
 C       -8.353593993     6.354166683   -24.954303906
Si       -8.878979147     8.535660636   -28.410329192
 C       -9.052732191    10.386985776   -28.600225740
 C       -7.390558901     7.951496489   -29.377875751
 C      -10.426185512     7.704690544   -29.050217389
 C       -5.475236605     5.657280259   -15.380781313
 C       -8.305795460     4.498809599   -15.285658716
 C       -4.657708157    12.808920691     1.523089403
 C       -2.647502848    13.759601419    -0.570537162
 C       -0.626063781    -0.869208371    -1.530943040
 C       -0.606232979    -0.885611047     1.530842911
 H        1.233686684     2.698365795    -0.513342375
 H        0.323088308     4.949326052    -0.501859420
 H       -3.567770229     3.415020271     0.514029762
 H       -2.700042901     1.143206783     0.508960700
 H       -3.336456080     5.720369107     0.264749359
 H       -0.525104625     6.791963631    -0.467134558
 H       -0.304001681     9.104126833    -0.718637752
 H       -1.185789440    11.371757050    -0.717023671
 H       -5.105576859     9.795423942     0.331235364
 H       -4.185023670     7.549021096     0.303908899
 H       -5.759761451    13.590828866    -1.463784257
 H       -5.204813609    10.607334482    -2.202595563
 H       -6.505445089     9.659102107    -3.848562657
 H       -8.296717400     9.742219582    -5.518539191
 H       -8.958995267    13.909901801    -4.558590527
 H       -7.253056560    13.771576992    -2.823068858
 H      -11.194771598    13.051608006    -7.198368337
 H       -9.696988387    13.943768053    -6.788146099
 H      -10.895519828    13.530890595    -5.519236875
 H      -10.614343586    13.397818849    -9.621436772
 H      -11.034263632    11.701387276   -10.010784760
 H      -10.735906260    12.894986988   -11.316315104
 H       -6.488328762    11.291887448   -10.497243738
 H       -5.729648432     9.452393943   -11.922307626
 H       -9.677252580     9.101446210   -13.600579153
 H      -10.467323170    10.896762957   -12.154104171
 H       -6.075958006     7.837276373   -13.538932368
 H       -8.946966847     7.621137160   -14.745385471
 H       -7.594412049     8.660324901   -17.028014041
 H       -7.897307745     9.288683943   -19.361403712
 H       -7.775800970     5.149908065   -20.537312842
 H       -7.478732925     4.475897379   -18.223253769
 H       -8.121725916     8.789798664   -21.630160350
 H       -8.032536372     5.800775082   -22.433649374
 H       -8.376551236     9.440883496   -23.531072378
 H       -8.678350875    10.110086721   -25.844985944
 H       -8.566366077     5.924398978   -27.030289402
 H       -8.260499918     5.299993020   -24.699515009
 H       -9.676462471     9.954440141    -7.010288194
 H      -10.478819578    11.162397822    -8.026181884
 H       -7.444125402    11.288314768    -7.421489331
 H       -8.085492521    10.297720752    -8.728709161
 H       -8.728386381    13.319344839    -8.532571276
 H       -7.232177070    12.736413247    -9.277186285
 H        2.267206654    -1.027614052     0.078203425
 H        2.271445495     0.575901472     0.852905423
 H        2.277513635     0.441395610    -0.926234452
 H       -9.222094764    10.664255311   -29.656163109
 H       -8.144718963    10.917077186   -28.261777996
 H       -9.906709537    10.774841762   -28.016632026
 H       -6.462209701     8.420756346   -29.004182233
 H       -7.260317326     6.857566078   -29.300420879
 H       -7.483275095     8.201807854   -30.449246666
 H      -11.317273815     8.030666019   -28.483310271
 H      -10.601868991     7.945025826   -30.113484126
 H      -10.363153835     6.605769198   -28.962376907
 H       -4.850921969     6.543603258   -15.597032606
 H       -5.282889236     5.356366037   -14.335664237
 H       -5.121104714     4.839735796   -16.033953521
 H       -9.373611836     4.664894171   -15.516752869
 H       -7.970292926     3.624991066   -15.870561509
 H       -8.236233570     4.229947680   -14.215989549
 H       -5.463932250    12.094632238     1.769559019
 H       -3.883116678    12.717336488     2.305813657
 H       -5.082930515    13.825619511     1.590289459
 H       -2.226509421    13.605027854    -1.580737623
 H       -3.071209945    14.779402063    -0.543754559
 H       -1.812724886    13.728867502     0.151832479
 H       -0.279515344    -0.362136144    -2.449753134
 H       -0.273178905    -1.914588234    -1.573681096
 H       -1.730077825    -0.887161154    -1.562102866
 H       -0.285714519    -0.359265381     2.448503734
 H       -1.707976133    -0.951957411     1.555653300
 H       -0.210261123    -1.915169746     1.582211216

