139   

Si        0.000000000     0.000000000     0.000000000
 C        1.869277718     0.000000000     0.000000000
 C       -0.653148424     1.726637665     0.000000000
 C        0.183390663     2.824295905     0.223134509
 C       -0.330643230     4.121128117     0.218950597
 C       -1.690845274     4.349755911    -0.003972715
 C       -2.528656573     3.247977458    -0.224300497
 C       -2.018513973     1.952636410    -0.221507127
 C       -2.272893690     5.687944693    -0.017324239
 C       -1.582370750     6.824059343     0.178667863
 C       -2.163541295     8.162628451     0.165495128
 C       -3.524373327     8.391204417    -0.057541864
 C       -4.037967404     9.687723173    -0.061669538
 C       -3.196737982    10.784933506     0.148979524
 C       -1.832445000    10.560053058     0.371796094
 C       -1.324456435     9.263493190     0.382867661
Si       -3.863323497    12.505839151     0.146038872
 C       -2.508337554    13.639083703    -0.337749226
 C       -2.027049655    14.641424444     0.409313194
 C       -0.941093052    15.528817941    -0.010358493
 C       -0.519822776    16.546113400     0.857941963
 C        0.503520126    17.411566782     0.507239453
 C        1.184168074    17.254446742    -0.719784755
 C        0.762777381    16.231605741    -1.591531181
 C       -0.296374252    15.403661580    -1.244127822
 N        2.221122219    18.137894429    -1.066359427
 C        3.044291117    18.674461135     0.032790205
 C        3.010366818    17.800812967    -2.263604353
 C        3.787733977    17.581802115     0.822144952
 C        4.969619052    18.128358969     1.639995508
 N        6.048437447    18.784331730     0.863487632
 C        6.290312905    18.228633543    -0.414487993
 C        6.573184344    16.848267781    -0.489068268
 C        6.817586146    16.252933490    -1.714625280
 C        6.819552584    17.007937300    -2.898014835
 C        6.565434738    18.378377376    -2.815565671
 C        6.314740481    18.991255412    -1.592429484
 C        6.011890401    20.253713410     0.943732870
 C        7.083754439    16.329371938    -4.168800103
 C        7.109651055    16.950138982    -5.354887178
Si        7.434435265    16.151184798    -6.971448395
 C        5.944026744    16.430992778    -8.023030187
 C        4.688913814    16.595896757    -7.423089147
 C        3.556542055    16.807669481    -8.204877481
 C        3.648350656    16.852413283    -9.602337817
 C        4.901781058    16.682957942   -10.197260008
 C        6.038877377    16.473514967    -9.417203014
 C        2.432812527    17.077045018   -10.377967382
 C        2.382132594    17.144758746   -11.719107589
 C        1.165683062    17.369471189   -12.493351098
 C       -0.087024654    17.538755529   -11.897127747
 C       -1.224143083    17.751255950   -12.675669995
 C       -1.132029032    17.808303918   -14.070499968
 C        0.122267243    17.639908905   -14.670322163
 C        1.255179005    17.419903192   -13.890653586
Si       -2.636531927    18.089600554   -15.103340418
 C       -3.888672737    19.099592921   -14.150887517
 C       -2.177529768    19.010524168   -16.664256298
 C       -3.367364795    16.426641164   -15.540855137
 C        8.938178615    16.956658265    -7.730815457
 C        7.712014955    14.314025356    -6.798365951
 C       -5.233481460    12.671251593    -1.113481643
 C       -4.516786937    12.892059481     1.851915266
 C       -0.608117123    -0.883564061    -1.531068915
 C       -0.625473428    -0.869571274     1.531144046
 H        1.255634899     2.709146667     0.403708653
 H        0.342904572     4.958554874     0.392744636
 H       -3.591532029     3.403965904    -0.399842873
 H       -2.720635288     1.133226337    -0.399039622
 H       -3.350412856     5.715990764    -0.204195679
 H       -0.504699323     6.795535565     0.365444575
 H       -4.197532689     7.553527180    -0.229751176
 H       -5.110379401     9.804092840    -0.239659706
 H       -1.129187587    11.382753062     0.540271313
 H       -0.261890125     9.107075221     0.559710352
 H       -2.098358158    13.429202514    -1.339133483
 H       -2.416150998    14.876485330     1.408745956
 H       -1.013167160    16.669779219     1.822407497
 H        0.778958635    18.211923566     1.187435114
 H        1.252895145    16.079931264    -2.548360512
 H       -0.613177028    14.630082234    -1.945953627
 H        3.814512429    18.543614576    -2.412198757
 H        2.357308059    17.850434986    -3.153569934
 H        3.483294731    16.805797553    -2.215692815
 H        6.040230016    20.551844542     2.007064164
 H        5.129868157    20.716341649     0.474829852
 H        6.922883460    20.669244670     0.476143683
 H        6.603239156    16.256712891     0.423344909
 H        7.023963948    15.182835959    -1.756954459
 H        6.567021186    18.988627651    -3.720495984
 H        6.123163495    20.059582812    -1.567995287
 H        7.261456939    15.251866822    -4.056976154
 H        6.930642917    18.035264850    -5.433872384
 H        4.557064095    16.569128728    -6.336023618
 H        2.589539711    16.938123772    -7.721943409
 H        5.000391172    16.713502743   -11.280874196
 H        6.991996013    16.349846319    -9.938397846
 H        1.523887292    17.192178906    -9.779823849
 H        3.290519113    17.029340477   -12.317776097
 H       -0.185402714    17.504145432   -10.813452986
 H       -2.176128701    17.873982067   -12.151497906
 H        0.255624669    17.675034029   -15.755084623
 H        2.220637890    17.288818858   -14.375948503
 H        3.766519097    19.398988264    -0.408212905
 H        2.391939160    19.272119565     0.707475897
 H        3.081622500    17.061009179     1.498458927
 H        4.140911963    16.796055564     0.123455167
 H        4.598080906    18.830685692     2.417178554
 H        5.450803469    17.283606878     2.191104715
 H        2.267102358    -1.029410077    -0.050489412
 H        2.277142894     0.465944000     0.914404021
 H        2.271891461     0.552632222    -0.867848568
 H       -4.766361746    19.340370444   -14.776807893
 H       -3.453557188    20.055759147   -13.807691162
 H       -4.257138710    18.561514632   -13.260028286
 H       -1.666337403    19.962199584   -16.431156246
 H       -1.503122827    18.418049212   -17.306771974
 H       -3.073796791    19.253386882   -17.262417454
 H       -3.645643885    15.858639021   -14.634829481
 H       -4.275758926    16.535995121   -16.158886510
 H       -2.649084785    15.807985503   -16.108338373
 H        8.768176410    18.032202258    -7.919437582
 H        9.814891262    16.872668460    -7.062663045
 H        9.208704318    16.487628082    -8.693012141
 H        6.834656911    13.814232140    -6.348605826
 H        7.888791551    13.841192866    -7.781500459
 H        8.587780383    14.095736642    -6.161545193
 H       -4.895229921    12.362327757    -2.119127320
 H       -6.107323850    12.050888990    -0.849524535
 H       -5.579452870    13.718376578    -1.188278250
 H       -3.722155634    12.809016923     2.615591985
 H       -4.928553747    13.915594051     1.903597025
 H       -5.322509485    12.193295581     2.140129580
 H       -0.281651280    -0.361434926    -2.448951959
 H       -0.219473399    -1.916051735    -1.579458489
 H       -1.710328122    -0.941460571    -1.558350317
 H       -0.277669841    -0.362927329     2.449707574
 H       -1.729465267    -0.886640873     1.563155857
 H       -0.273388525    -1.915202756     1.573003480

