139   

Si        0.000000000     0.000000000     0.000000000
 C        1.869309653     0.000000000     0.000000000
 C       -0.627132535     1.735447102     0.000000000
 C        0.075363891     2.737642989    -0.677815706
 C       -0.392298393     4.050713981    -0.682168911
 C       -1.563103178     4.394819728    -0.001330055
 C       -2.265524005     3.389130874     0.674515490
 C       -1.807999691     2.073492531     0.669006901
 C       -2.087914983     5.756376561     0.020102064
 C       -1.516888591     6.804633131    -0.597772354
 C       -2.040264471     8.166378496    -0.577318743
 C       -3.210873576     8.510037046     0.103497910
 C       -3.678855477     9.824134060     0.099111500
 C       -2.990046336    10.821494359    -0.596873746
 C       -1.821424549    10.478145106    -1.290501763
 C       -1.357952337     9.165945391    -1.284120300
Si       -3.585620433    12.567310886    -0.620053309
 C       -2.334344999    13.664839136     0.141865845
 C       -1.158366340    13.261946427     0.643258544
 C       -0.169761707    14.152986166     1.248811874
 C        1.027552087    13.606306279     1.738875005
 C        1.997013474    14.402095216     2.321028996
 C        1.793097401    15.796899979     2.448733317
 C        0.583369265    16.346512736     1.967228598
 C       -0.373733026    15.527708349     1.385189703
 N        2.750626595    16.608021058     3.027745681
 C        4.162008069    16.230347603     3.097630473
 C        2.396012795    17.949361248     3.485585696
 C        5.101913476    17.238534417     2.395872433
 C        5.530066153    16.790557959     0.975463714
 N        4.452248418    16.053142396     0.296467138
 C        4.775077547    14.955974682    -0.507409400
 C        5.933021429    14.191614557    -0.239704947
 C        6.258050900    13.104038712    -1.032097889
 C        5.413317812    12.683739983    -2.068039459
 C        4.241953941    13.411056380    -2.302816170
 C        3.914604568    14.520932681    -1.536820887
 C        3.362631895    16.925340681    -0.169326422
 C        5.810153651    11.527954270    -2.871459226
 C        5.089410207    11.032466468    -3.885838215
Si        5.568781176     9.587276519    -4.903088436
 C        4.254851393     8.301139075    -4.724381995
 C        2.982353044     8.669104911    -4.270896344
 C        1.974978002     7.717564613    -4.127883846
 C        2.213776509     6.376165383    -4.441380949
 C        3.488332011     6.009047179    -4.892452036
 C        4.500175011     6.957541178    -5.027442067
 C        1.189089241     5.346255825    -4.306976446
 C       -0.066534855     5.573915873    -3.885687272
 C       -1.096356590     4.549766476    -3.748728226
 C       -0.867012179     3.205202286    -4.050112896
 C       -1.882171472     2.259972152    -3.904021895
 C       -3.149827275     2.643163453    -3.457774044
 C       -3.383833890     3.992480483    -3.160283052
 C       -2.368148793     4.932471994    -3.308026640
Si       -4.513695400     1.418072625    -3.253936638
 C       -4.006472385    -0.256378811    -3.913151444
 C       -4.884186681     1.282620123    -1.426898646
 C       -6.022634041     2.014459232    -4.181229487
 C        5.656386893    10.115651613    -6.692972560
 C        7.216355528     8.892753145    -4.362987302
 C       -3.857580317    13.087218898    -2.395426628
 C       -5.184183327    12.741812390     0.333197737
 C       -0.640171792    -0.842996416    -1.541150515
 C       -0.610319933    -0.910017265     1.514967390
 H        0.999992356     2.533314728    -1.224797327
 H        0.167611719     4.810180047    -1.229052356
 H       -3.182699657     3.634050125     1.206159269
 H       -2.400185920     1.330926965     1.209567757
 H       -3.013681624     5.880158686     0.589274272
 H       -0.587005314     6.677585259    -1.161328168
 H       -3.767208841     7.752073722     0.651503895
 H       -4.595319228    10.033565185     0.657257392
 H       -1.242883033    11.217904184    -1.852987001
 H       -0.447166301     8.917270981    -1.826858710
 H       -2.629279504    14.724613574     0.161579209
 H       -0.843739394    12.207465494     0.638597023
 H        1.203517002    12.531937664     1.652036551
 H        2.914493668    13.947667840     2.682773517
 H        0.396040902    17.410755806     2.037169712
 H       -1.298926525    15.976842608     1.021343133
 H        3.140418027    18.320133043     4.210932151
 H        1.418831917    17.930772173     4.005414058
 H        2.330505167    18.669859591     2.651113131
 H        3.214779111    17.761627227     0.533593444
 H        2.412488667    16.353187420    -0.168541573
 H        3.538814852    17.336017859    -1.176002543
 H        6.586692245    14.454275444     0.587216280
 H        7.176253919    12.552697935    -0.827336781
 H        3.562641834    13.101746255    -3.098986998
 H        2.987766316    15.046896748    -1.744395120
 H        6.767253680    11.091173490    -2.555592755
 H        4.136192134    11.496885187    -4.183102181
 H        2.734360725     9.701863261    -4.005391458
 H        0.995089373     8.030439632    -3.770842557
 H        3.695617740     4.969589778    -5.138737116
 H        5.476060444     6.611358511    -5.377094327
 H        1.513041053     4.338084393    -4.578501451
 H       -0.392139857     6.585564520    -3.622296140
 H        0.111434709     2.881622647    -4.399121324
 H       -1.642184300     1.221940253    -4.147624079
 H       -4.354036752     4.349721397    -2.803801526
 H       -2.567225070     5.976686871    -3.066569597
 H        4.447541498    16.145502867     4.173083159
 H        4.310906413    15.219414878     2.646198526
 H        4.626156859    18.233320026     2.338015938
 H        6.010878499    17.378647531     3.009090687
 H        5.835374878    17.681710714     0.381936176
 H        6.439878461    16.155293271     1.064286940
 H        2.269987764    -1.026642463     0.064677692
 H        2.268132769     0.566803126     0.860966365
 H        2.278946909     0.458232293    -0.917369962
 H       -4.826760540    -0.988861960    -3.814078490
 H       -3.134741410    -0.659634745    -3.367178250
 H       -3.738157199    -0.203392938    -4.983218746
 H       -3.968146992     1.030526596    -0.858786221
 H       -5.264655211     2.237606127    -1.023058319
 H       -5.636671215     0.503829389    -1.218750886
 H       -5.807091109     2.136181195    -5.258261635
 H       -6.860394355     1.301828760    -4.087646393
 H       -6.372304886     2.991332351    -3.803078069
 H        4.684374834    10.503248992    -7.047496498
 H        6.406346405    10.913698542    -6.838354732
 H        5.933517534     9.270626296    -7.347745692
 H        7.172158769     8.523315341    -3.321995926
 H        7.529843223     8.048000519    -5.000952062
 H        8.011100366     9.658439946    -4.414264763
 H       -2.921172058    13.033445927    -2.978747324
 H       -4.596351772    12.433831973    -2.892853009
 H       -4.230336369    14.124241389    -2.459663808
 H       -5.049642336    12.467428974     1.395374981
 H       -5.553344418    13.782466925     0.307416484
 H       -5.977142099    12.097911129    -0.085465047
 H       -0.382906348    -0.266176712    -2.447907008
 H       -0.217945199    -1.855966795    -1.653969806
 H       -1.740699371    -0.938872457    -1.511461729
 H       -0.316277706    -0.385010496     2.441761978
 H       -1.709946361    -1.006073808     1.520432814
 H       -0.189913369    -1.929863862     1.564901283

