139   

Si        0.000000000     0.000000000     0.000000000
 C        1.869603241     0.000000000     0.000000000
 C       -0.627535394     1.736295157     0.000000000
 C        0.072929338     2.742884457    -0.674154851
 C       -0.397302104     4.055298848    -0.676754563
 C       -1.581849037     4.391515225    -0.014973945
 C       -2.284587195     3.381640129     0.654689751
 C       -1.815168939     2.070230839     0.662355167
 C       -2.110712250     5.751087917     0.008315258
 C       -1.529557321     6.804369450    -0.590512421
 C       -2.053551128     8.165620998    -0.570632484
 C       -3.236782078     8.507477585     0.089059604
 C       -3.700823157     9.823034591     0.081898862
 C       -2.984027254    10.821721868    -0.582053419
 C       -1.796631183    10.483276152    -1.244587540
 C       -1.339565878     9.169060974    -1.239800045
Si       -3.561287569    12.573179154    -0.616556783
 C       -2.054507114    13.573799504    -0.329622507
 C       -1.557696695    14.487004915    -1.173036775
 C       -0.350076910    15.272625118    -0.916803398
 C        0.068581332    16.198922130    -1.879616395
 C        1.204995649    16.970298775    -1.690080516
 C        2.028982291    16.763364241    -0.563748536
 C        1.623192674    15.808005795     0.391897028
 C        0.445038018    15.096397682     0.220661903
 N        3.183124763    17.534100752    -0.354899354
 C        3.719562988    18.313658274    -1.482682690
 C        4.215815800    16.949759274     0.516296481
 C        4.118084874    17.494047667    -2.723058385
 C        5.559400604    16.954964096    -2.656396248
 N        5.718213454    15.579264815    -3.178189494
 C        5.121567377    14.603020314    -2.316259665
 C        5.851475641    14.271158126    -1.162079667
 C        5.348206790    13.335296044    -0.272376684
 C        4.118545919    12.703020414    -0.511127811
 C        3.404593190    13.031393457    -1.666176365
 C        3.899763541    13.968936567    -2.568126714
 C        5.339962005    15.457568285    -4.597318411
 C        3.641244523    11.722772442     0.467818129
 C        2.489668714    11.047788969     0.365062596
Si        1.896728945     9.821650520     1.593433784
 C        0.280446457    10.417795251     2.243543982
 C        0.092268209    11.783084775     2.494124595
 C       -1.125242780    12.245370928     2.985623256
 C       -2.172425470    11.353501669     3.252552168
 C       -1.978624746     9.992295804     3.004757907
 C       -0.764842055     9.526790733     2.500477631
 C       -3.430602548    11.882963438     3.766718555
 C       -4.512424701    11.137793329     4.050659063
 C       -5.770720748    11.666957430     4.564828254
 C       -5.969716684    13.027795870     4.814409142
 C       -7.189218944    13.491104759     5.306199213
 C       -8.243475251    12.603435899     5.547786555
 C       -8.047480263    11.240183141     5.294803957
 C       -6.825351156    10.778831865     4.811839796
Si       -9.857361418    13.219938319     6.199099152
 C      -10.192132357    14.939109298     5.545280846
 C      -11.243906985    12.087383181     5.660585752
 C       -9.761565432    13.258745279     8.064722858
 C        1.700859320     8.173677580     0.739044994
 C        3.082590172     9.650835650     3.026392618
 C       -4.308353036    12.912154237    -2.296229518
 C       -4.831290344    12.929344708     0.698299931
 C       -0.632797253    -0.853002530    -1.537359488
 C       -0.606395130    -0.905225783     1.519210585
 H        1.003566463     2.541234409    -1.211974546
 H        0.169540253     4.819891237    -1.205222652
 H       -3.209611011     3.620999030     1.175899075
 H       -2.405980310     1.326173128     1.203675415
 H       -3.044977228     5.870411854     0.564174657
 H       -0.597913016     6.680156813    -1.151021263
 H       -3.809423495     7.746282685     0.614769276
 H       -4.631037964    10.035768306     0.616514837
 H       -1.191308833    11.230381618    -1.768886543
 H       -0.418678862     8.922445583    -1.765202439
 H       -1.558531497    13.350248179     0.630645082
 H       -2.030664202    14.725292387    -2.134435989
 H       -0.522498091    16.342831624    -2.784379179
 H        1.454208841    17.724658934    -2.428901647
 H        2.227238578    15.619852018     1.274205718
 H        0.148629475    14.371602290     0.981970843
 H        5.111140046    17.590438889     0.541193697
 H        4.520642343    15.934765513     0.202290535
 H        3.829754898    16.898855714     1.550976761
 H        6.000444203    16.112591188    -5.191406279
 H        4.295844664    15.721626483    -4.822814550
 H        5.520319188    14.420296547    -4.930492698
 H        6.816124683    14.743628864    -0.985806100
 H        5.922268583    13.082981986     0.618860363
 H        2.440543499    12.560159448    -1.866399895
 H        3.322568290    14.212867984    -3.455914974
 H        4.333468439    11.589547962     1.309913590
 H        1.808150652    11.201311326    -0.487480557
 H        0.879922487    12.519940928     2.305591424
 H       -1.261703900    13.309748563     3.169535399
 H       -2.779796143     9.280514163     3.193792639
 H       -0.677174180     8.452897692     2.309159616
 H       -3.441876057    12.966496143     3.922039344
 H       -4.497762384    10.054106895     3.902018481
 H       -5.167971281    13.740696315     4.628542680
 H       -7.282872931    14.565734668     5.486590179
 H       -8.834850324    10.500609208     5.463731529
 H       -6.692131272     9.714950238     4.624115786
 H        2.940500272    19.063990666    -1.763231987
 H        4.583670601    18.912556984    -1.117402976
 H        3.411756498    16.644824511    -2.843491336
 H        3.989401747    18.110213912    -3.630741668
 H        6.245843207    17.610072400    -3.236897565
 H        5.935997234    16.964352731    -1.609639274
 H        2.268732987    -1.027771624     0.066696205
 H        2.269406561     0.567907926     0.859630556
 H        2.279561075     0.454200681    -0.918945004
 H      -11.184529862    15.302494754     5.866459722
 H      -10.173730344    14.956750161     4.440418996
 H       -9.442736624    15.666894699     5.902667903
 H      -11.269508193    11.982208544     4.560850515
 H      -11.137803852    11.076125527     6.090644452
 H      -12.226130775    12.479585333     5.979355298
 H       -8.950104764    13.923392703     8.412093888
 H      -10.704861668    13.622168574     8.508908841
 H       -9.562626292    12.253441109     8.477827265
 H        0.874473498     8.200131993     0.004467781
 H        2.621093884     7.884945900     0.201347679
 H        1.472730592     7.369658974     1.462104047
 H        3.228024656    10.612813579     3.549355138
 H        2.704532406     8.927341190     3.771390219
 H        4.072706439     9.294900235     2.691879184
 H       -3.584823028    12.716146000    -3.107213717
 H       -5.188306258    12.269548555    -2.477954657
 H       -4.638884895    13.961940298    -2.384416168
 H       -4.484481440    12.608122937     1.698162973
 H       -5.056814235    14.009269936     0.757940840
 H       -5.781391935    12.402742700     0.497783496
 H       -0.286197698    -0.341018655    -2.453049689
 H       -0.286890755    -1.900311850    -1.588333907
 H       -1.737357508    -0.863817152    -1.564894134
 H       -0.317484310    -0.373226861     2.443682517
 H       -1.705550212    -1.009025791     1.522774797
 H       -0.179388860    -1.922491434     1.574384561

