139   

Si        0.000000000     0.000000000     0.000000000
 C        1.869342256     0.000000000     0.000000000
 C       -0.654072176     1.725365532     0.000000000
 C        0.193935043     2.832025676    -0.101759322
 C       -0.327124371     4.125690155    -0.099299369
 C       -1.701670406     4.342977898     0.024786327
 C       -2.549955305     3.232459772     0.129345280
 C       -2.034849511     1.939408037     0.110083891
 C       -2.286629055     5.679169993     0.031821357
 C       -1.580033557     6.816842367    -0.077945188
 C       -2.158599088     8.155649971    -0.071620739
 C       -1.302769461     9.257380522    -0.194404698
 C       -1.809625533    10.554632012    -0.193441576
 C       -3.188164457    10.777932140    -0.100707495
 C       -4.045929787     9.678721230     0.016821111
 C       -3.533392691     8.382743579     0.040952093
Si       -3.869845869    12.493333169    -0.098613265
 C       -5.072465712    12.534558575     1.280004933
 C       -4.996465215    13.351332598     2.338267710
 C       -5.969754069    13.367917721     3.430538584
 C       -5.780549895    14.270873952     4.484926863
 C       -6.670057105    14.330221119     5.544945467
 C       -7.827041198    13.521471139     5.551106440
 C       -8.023999160    12.622483850     4.485935876
 C       -7.096028612    12.539796227     3.456730025
 N       -8.717105271    13.596515855     6.636051590
 C       -8.877508866    14.906526839     7.292675907
 C       -9.955599590    12.810191902     6.539790115
 C       -9.098233460    16.100115934     6.346362059
 C      -10.537262733    16.188360775     5.804980353
 N      -10.614480673    16.484960467     4.364618746
 C      -10.668678975    15.409947244     3.460320794
 C      -11.526296449    14.325821262     3.744533002
 C      -11.605953175    13.249547983     2.877006083
 C      -10.894992158    13.237586165     1.667604228
 C      -10.069295697    14.326009757     1.373359111
 C       -9.949668481    15.397161629     2.250831352
 C       -9.830300655    17.661846104     3.963260626
 C      -11.023390792    12.068541975     0.795877870
 C      -10.407087295    11.916300144    -0.384557219
Si      -10.595305387    10.434487372    -1.446583822
 C       -9.035121404     9.516714329    -1.795645944
 C       -7.853058835    10.194850095    -2.114236261
 C       -6.679215151     9.488914703    -2.376254039
 C       -6.668957290     8.090997847    -2.370316898
 C       -7.856698738     7.414227421    -2.064730154
 C       -9.022944264     8.116698239    -1.773025646
 C       -5.470868975     7.303596053    -2.637351032
 C       -4.266257704     7.815199948    -2.942378024
 C       -3.075241093     7.014299127    -3.207327234
 C       -3.085281266     5.617753069    -3.165751005
 C       -1.925129254     4.888422290    -3.425258835
 C       -0.726193573     5.543166627    -3.721621270
 C       -0.711922544     6.944052079    -3.759759693
 C       -1.873157162     7.669096064    -3.506485261
Si        0.819796416     4.596984868    -4.067949327
 C        0.542287417     2.771076496    -3.787163757
 C        1.318748510     4.894573045    -5.844417613
 C        2.166888167     5.192738770    -2.914561305
 C      -11.847067661     9.271097955    -0.680656897
 C      -11.248984072    11.029486976    -3.098208141
 C       -2.517985595    13.762443578     0.116374186
 C       -4.774211836    12.806399089    -1.704134069
 C       -0.616725853    -0.858845678    -1.542141031
 C       -0.617231981    -0.887200752     1.524182299
 H        1.278729887     2.726463773    -0.188009211
 H        0.351609643     4.973045561    -0.184498463
 H       -3.623916369     3.380697735     0.224769250
 H       -2.745130870     1.112172159     0.188567774
 H       -3.375170815     5.705525513     0.134124288
 H       -0.492048330     6.788934841    -0.189534653
 H       -0.229895671     9.101042397    -0.284141546
 H       -1.092267991    11.374781217    -0.275073871
 H       -5.132766904     9.789611731     0.093592904
 H       -4.219910953     7.542774379     0.139160088
 H       -5.897605161    11.810322456     1.178603125
 H       -4.187107008    14.080779841     2.470286861
 H       -4.908219468    14.924839609     4.486602434
 H       -6.463850628    14.997613058     6.375981291
 H       -8.904865159    11.989050831     4.446108239
 H       -7.268095907    11.826355896     2.647565634
 H      -10.574101748    12.957681280     7.439166348
 H       -9.691625424    11.735740360     6.504908060
 H      -10.562597848    13.048965595     5.649651058
 H       -9.953895237    18.461059239     4.713576111
 H      -10.226379842    18.049399963     3.006256658
 H       -8.752532576    17.460980351     3.843714769
 H      -12.141969198    14.342361006     4.639809693
 H      -12.254176303    12.410008369     3.129748583
 H       -9.493643032    14.335849594     0.446195456
 H       -9.273128284    16.207973190     1.999651405
 H      -11.686242679    11.299877358     1.218442301
 H       -9.744746894    12.696932556    -0.787475163
 H       -7.806234461    11.287239194    -2.148873730
 H       -5.764134531    10.035320584    -2.602691685
 H       -7.871009390     6.326260157    -2.050162605
 H       -9.912230462     7.529916312    -1.527962259
 H       -5.614404335     6.220708434    -2.577991040
 H       -4.114699094     8.897707315    -2.999961341
 H       -4.003417518     5.083459960    -2.929113545
 H       -1.995595709     3.798066802    -3.374256648
 H        0.196888754     7.508594634    -3.983484210
 H       -1.843372129     8.757042240    -3.533374202
 H       -9.705389863    14.844027366     8.032227237
 H       -7.951692058    15.080412609     7.894840122
 H       -8.835407116    17.035692621     6.872598753
 H       -8.384228604    16.037540580     5.498029603
 H      -11.091611368    15.250402557     6.024172625
 H      -11.094646352    16.998619116     6.331563645
 H        2.266297997    -1.030634391     0.019810275
 H        2.273219996     0.525951711     0.883598619
 H        2.276378589     0.493129550    -0.900557019
 H        1.475113969     2.195118041    -3.913102795
 H       -0.201603998     2.358090745    -4.490275166
 H        0.171308810     2.582743513    -2.760761917
 H        0.528472002     4.562715572    -6.541907976
 H        1.500804512     5.965933969    -6.039714587
 H        2.241107615     4.345798256    -6.101665379
 H        1.904980716     4.990172670    -1.860336655
 H        3.124918799     4.686066012    -3.123254662
 H        2.334471866     6.279205110    -3.013688154
 H      -11.469119010     8.834953679     0.260972859
 H      -12.791721981     9.796994751    -0.452923926
 H      -12.094789879     8.438208739    -1.361651256
 H      -10.535221504    11.710069913    -3.594491436
 H      -11.430207872    10.182515017    -3.783204362
 H      -12.202090384    11.574062287    -2.976858330
 H       -1.932522418    13.577339057     1.035295899
 H       -1.814823947    13.756792437    -0.734581792
 H       -2.935926530    14.782441652     0.189927720
 H       -5.634276032    12.123513866    -1.825439473
 H       -5.163552900    13.839238295    -1.743609745
 H       -4.108124790    12.666778845    -2.573543096
 H       -0.270065133    -0.340752021    -2.454744784
 H       -0.256684594    -1.901162692    -1.592934506
 H       -1.720124742    -0.884819986    -1.576537581
 H       -0.276280761    -0.381227731     2.445902856
 H       -1.720369762    -0.921758888     1.556585511
 H       -0.249888867    -1.927783647     1.560408440

