139   

Si        0.000000000     0.000000000     0.000000000
 C        1.869698379     0.000000000     0.000000000
 C       -0.630059102     1.735733926     0.000000000
 C        0.112915711     2.763230630    -0.591208150
 C       -0.363094504     4.073896777    -0.591076923
 C       -1.593525350     4.387298619    -0.006759856
 C       -2.338546921     3.356243013     0.580283032
 C       -1.865120186     2.046446632     0.582660229
 C       -2.130318857     5.744223162     0.016390940
 C       -1.515567109     6.817384895    -0.509126708
 C       -2.048822768     8.175583948    -0.488069237
 C       -3.278772632     8.494357566     0.094975826
 C       -3.749714287     9.806820175     0.092113615
 C       -2.994785413    10.830395558    -0.490099372
 C       -1.762469160    10.515042704    -1.075226873
 C       -1.298204526     9.202040896    -1.076060676
Si       -3.612275087    12.569774260    -0.497323896
 C       -2.180589061    13.681548332    -0.762965851
 C       -2.037055713    14.534822619    -1.785420357
 C       -0.877371111    15.410063847    -1.966616675
 C       -0.837252604    16.263793553    -3.078299429
 C        0.237754871    17.110583301    -3.293862429
 C        1.346730311    17.096141258    -2.420474113
 C        1.307866066    16.238091849    -1.305837580
 C        0.201627244    15.429170067    -1.078816522
 N        2.431124204    17.964672803    -2.655624560
 C        2.781719841    18.211326049    -4.067355982
 C        3.619829090    17.788456861    -1.803178107
 C        3.186191127    16.931894983    -4.816682862
 C        3.572115673    17.252038841    -6.269401356
 N        4.059439678    16.072546434    -7.009626358
 C        5.214506844    15.445233165    -6.500247316
 C        6.236806505    16.227535721    -5.921107054
 C        7.378843634    15.628376918    -5.415452135
 C        7.571363988    14.242082295    -5.505074579
 C        6.572165345    13.472695918    -6.106239456
 C        5.414293042    14.056282744    -6.605368700
 C        2.963579500    15.189701302    -7.445307767
 C        8.796926326    13.662284167    -4.953841729
 C        9.093649558    12.356167044    -4.978980830
Si       10.623801052    11.618011792    -4.292690063
 C       11.689284111    12.937378561    -3.565379387
 C       12.162310798    13.967432205    -4.388417835
 C       12.968676291    14.977093895    -3.866753924
 C       13.317906490    14.984755060    -2.512579492
 C       12.841864697    13.954973677    -1.691649008
 C       12.036953042    12.942637240    -2.210458710
 C       14.159385510    16.021544998    -1.923980154
 C       14.678230730    17.060167992    -2.600693705
 C       15.519861040    18.097686469    -2.013399887
 C       15.872517733    18.107532400    -0.661190604
 C       16.679697334    19.119667843    -0.142416900
 C       17.161223917    20.140447778    -0.968721787
 C       16.810542187    20.131779783    -2.324856107
 C       15.997564092    19.124624705    -2.838458498
Si       18.230346743    21.483417236    -0.288077830
 C       19.147066365    20.873386772     1.222777847
 C       19.476085300    22.016965099    -1.576001891
 C       17.137937072    22.926912957     0.174729888
 C       10.139071037    10.360605865    -2.998356368
 C       11.564763040    10.772506920    -5.667783163
 C       -4.886552853    12.744515687    -1.850479453
 C       -4.374228730    12.989497327     1.156051618
 C       -0.633428376    -0.855903872    -1.535288169
 C       -0.605073012    -0.900208912     1.522541466
 H        1.082135723     2.581429529    -1.063850414
 H        0.235558902     4.855621536    -1.055358251
 H       -3.299777506     3.578175679     1.040465769
 H       -2.490351609     1.284515611     1.056064507
 H       -3.103261235     5.843450363     0.506420721
 H       -0.542434700     6.716854328    -0.999296828
 H       -3.881608722     7.715204059     0.557595182
 H       -4.718862049     9.995455202     0.561802570
 H       -1.131248259    11.276614233    -1.545693294
 H       -0.338951714     8.974428849    -1.537519162
 H       -1.409453958    13.597289275     0.020235914
 H       -2.788657318    14.642915876    -2.578447009
 H       -1.670996373    16.273770678    -3.780972130
 H        0.220362490    17.785855104    -4.144470548
 H        2.136640635    16.197116093    -0.605736809
 H        0.192152585    14.783956874    -0.198434088
 H        4.385445643    18.536667128    -2.069831941
 H        4.074123231    16.786659064    -1.879692952
 H        3.342534810    17.978529812    -0.750541514
 H        2.126486764    15.794643206    -7.832482862
 H        2.577812215    14.536939244    -6.644929393
 H        3.315626684    14.561459169    -8.283474833
 H        6.133873768    17.307421006    -5.864849015
 H        8.146892885    16.250236169    -4.952860392
 H        6.695973089    12.391990385    -6.190164749
 H        4.664408898    13.419081605    -7.063115963
 H        9.463691005    14.412881270    -4.503853399
 H        8.407887461    11.623089852    -5.430557711
 H       11.921670572    14.015853225    -5.455412727
 H       13.326815430    15.765184311    -4.526818601
 H       13.101872974    13.941945540    -0.634820861
 H       11.694885559    12.165742829    -1.521374809
 H       14.353815842    15.901319764    -0.854141375
 H       14.484959526    17.180572213    -3.670812571
 H       15.516575187    17.320898109     0.001764602
 H       16.918877827    19.074577056     0.923744415
 H       17.157592156    20.902584881    -3.018589111
 H       15.734277853    19.136264970    -3.894596379
 H        1.914913691    18.701711393    -4.565425357
 H        3.606868881    18.958533185    -4.097352535
 H        4.032164333    16.437505454    -4.298887357
 H        2.359212892    16.196184479    -4.790593531
 H        2.702084070    17.676837425    -6.818874929
 H        4.360777715    18.037844752    -6.303792780
 H        2.268504295    -1.026535398     0.085451201
 H        2.269860992     0.583103907     0.849203179
 H        2.279480623     0.436543689    -0.927540478
 H       19.859253867    21.633128107     1.591381753
 H       19.725136200    19.958776867     0.997879595
 H       18.458034158    20.637924755     2.052661374
 H       20.086818209    21.161993108    -1.918784921
 H       18.986958380    22.454054997    -2.463874060
 H       20.167567511    22.777605409    -1.171761245
 H       16.386147682    22.636197298     0.930457537
 H       17.728298074    23.760591291     0.593916958
 H       16.588936521    23.313526161    -0.702594701
 H        9.564201008    10.828456760    -2.178482363
 H        9.506311161     9.564748679    -3.430284040
 H       11.025925007     9.874318239    -2.555040267
 H       11.841040304    11.485414186    -6.465523496
 H       12.499181337    10.319216417    -5.290486564
 H       10.966954345     9.969026157    -6.132614258
 H       -4.457949595    12.504322904    -2.840500374
 H       -5.739727707    12.061539195    -1.688620299
 H       -5.286863669    13.772899743    -1.896918603
 H       -3.659702182    12.822820162     1.982493198
 H       -4.682792470    14.050119761     1.194050549
 H       -5.268437191    12.375292818     1.359762045
 H       -0.288357054    -0.344707203    -2.452066305
 H       -0.285868457    -1.902730572    -1.585194657
 H       -1.737904023    -0.868362709    -1.562264090
 H       -0.304982265    -0.370732718     2.445130477
 H       -1.705049850    -0.993299530     1.534177751
 H       -0.187045821    -1.921231893     1.575661153

