139   

Si        0.000000000     0.000000000     0.000000000
 C        1.869482839     0.000000000     0.000000000
 C       -0.612521190     1.743411990     0.000000000
 C       -0.004461253     2.690303242    -0.832887145
 C       -0.449373152     4.010968235    -0.849782936
 C       -1.502346197     4.421035156    -0.026573029
 C       -2.110781277     3.472383558     0.805196160
 C       -1.677317646     2.148041076     0.813383738
 C       -1.997447496     5.794126264    -0.014682740
 C       -1.506325971     6.787803357    -0.775297925
 C       -1.995708975     8.162393292    -0.769062484
 C       -1.390069913     9.101241892    -1.615954822
 C       -1.824358655    10.423756313    -1.643058685
 C       -2.892185473    10.836412653    -0.834932917
 C       -3.497793463     9.901403591     0.010035517
 C       -3.048135251     8.581542382     0.048793477
Si       -3.460605965    12.591557817    -0.877854053
 C       -4.128398055    13.009979567    -2.532325842
 C       -4.205775400    12.179907643    -3.581464027
 C       -4.747125740    12.552933801    -4.889656825
 C       -4.775351981    11.594957514    -5.911794922
 C       -5.277285631    11.895889301    -7.168589303
 C       -5.763721563    13.185315226    -7.459914204
 C       -5.746271616    14.147603690    -6.427018679
 C       -5.262785146    13.822963279    -5.167303205
 N       -6.280774844    13.533788366    -8.718832813
 C       -6.156576846    12.583321401    -9.838247282
 C       -6.090039553    14.939895308    -9.118979347
 C       -7.366473223    12.687818660   -10.789304303
 C       -8.684570360    12.195356108   -10.156527926
 N       -8.857527206    10.731128673   -10.051078211
 C       -8.118608132    10.142796187    -8.987685018
 C       -8.488246437    10.513937557    -7.679119917
 C       -7.814894932     9.982659796    -6.593920265
 C       -6.794132490     9.033465739    -6.772637978
 C       -6.456335506     8.644707274    -8.068858883
 C       -7.114577025     9.183307409    -9.171548931
 C       -8.779491943    10.037021455   -11.346131244
 C       -6.122211327     8.511828639    -5.581789679
 C       -5.135130219     7.606383104    -5.596985216
Si       -4.328132198     6.987147744    -4.074578514
 C       -4.459642322     5.173675038    -3.795785131
 C       -4.889343136     4.258485653    -4.760628533
 C       -4.957776301     2.897955631    -4.459484148
 C       -4.576791069     2.421308133    -3.199131835
 C       -4.140803391     3.339689264    -2.239564062
 C       -4.086958395     4.698693277    -2.531819996
 C       -4.658436101     0.992739648    -2.910845208
 C       -4.329265449     0.450119015    -1.726060120
 C       -4.397798770    -0.969527980    -1.401952506
 C       -4.824139426    -1.936871773    -2.314485470
 C       -4.871353727    -3.283988813    -1.953743991
 C       -4.496013888    -3.690620228    -0.670272078
 C       -4.079918007    -2.720303326     0.251947806
 C       -4.042637592    -1.376879006    -0.108053030
Si       -4.546756738    -5.463567030    -0.161140444
 C       -4.901733494    -6.566023645    -1.627889884
 C       -2.886333493    -5.924215043     0.565507028
 C       -5.889907568    -5.676862299     1.120270947
 C       -2.510801679     7.397001330    -4.248519303
 C       -5.065822418     7.865456630    -2.599021172
 C       -4.808748857    12.883392595     0.383447766
 C       -2.005446662    13.704484903    -0.508957878
 C       -0.649363711    -0.838504083    -1.535568211
 C       -0.606676469    -0.916295659     1.512889017
 H        0.825458982     2.431783923    -1.496798930
 H        0.034446318     4.724260236    -1.514776720
 H       -2.932620046     3.769627887     1.454039186
 H       -2.192188473     1.451496758     1.480217636
 H       -2.821393219     5.978323752     0.681094691
 H       -0.674366289     6.601392751    -1.461784139
 H       -0.563952091     8.797404608    -2.256628726
 H       -1.309120322    11.113454429    -2.318605784
 H       -4.333055503    10.165959112     0.664482941
 H       -3.529179997     7.877514382     0.725513879
 H       -4.481057559    14.050687899    -2.606864475
 H       -3.862766595    11.135648221    -3.536956070
 H       -4.397688775    10.586723551    -5.722036226
 H       -5.289307376    11.113215183    -7.925072265
 H       -6.135111977    15.145389664    -6.601113455
 H       -5.277806809    14.583673024    -4.386126877
 H       -6.222335454    15.070415778   -10.204136943
 H       -5.091462634    15.326595294    -8.853097942
 H       -6.856104323    15.560360153    -8.618732538
 H       -9.508053366    10.493293419   -12.038029779
 H       -9.079108972     8.982787509   -11.206064040
 H       -7.787283433    10.058641935   -11.822065739
 H       -9.294830526    11.229580421    -7.530356481
 H       -8.088072783    10.300792228    -5.586664318
 H       -5.670549346     7.906525164    -8.229815132
 H       -6.831289732     8.861863204   -10.168332750
 H       -6.520544124     8.941216320    -4.649990729
 H       -4.751901817     7.187670161    -6.538032960
 H       -5.193661051     4.576404023    -5.760747461
 H       -5.307150957     2.200392294    -5.217604671
 H       -3.826822993     2.998834524    -1.252193337
 H       -3.736968700     5.364868796    -1.734977550
 H       -5.015345854     0.372191555    -3.735998130
 H       -3.966592167     1.084270664    -0.908588123
 H       -5.120397796    -1.645688337    -3.320509035
 H       -5.210899457    -3.995686006    -2.710953333
 H       -3.779897839    -2.979744553     1.270869507
 H       -3.738706927    -0.632035734     0.625882394
 H       -5.214727507    12.751674797   -10.406104373
 H       -6.106516917    11.539000683    -9.448191010
 H       -7.506138288    13.736955006   -11.112582352
 H       -7.145781250    12.117880238   -11.710218064
 H       -8.783819325    12.639805317    -9.136921411
 H       -9.545795462    12.578422016   -10.749689806
 H        2.268442015    -1.029057412     0.037980926
 H        2.270126350     0.544230095     0.873871118
 H        2.279335242     0.479638201    -0.905862300
 H       -4.875136543    -7.632304856    -1.340211606
 H       -4.156770523    -6.422048302    -2.430845850
 H       -5.900090638    -6.365141890    -2.055379999
 H       -2.072751981    -5.758850923    -0.164065485
 H       -2.653342635    -5.323545814     1.462090091
 H       -2.858424270    -6.987802295     0.860516796
 H       -6.880020326    -5.406120588     0.710547521
 H       -5.948978801    -6.721965177     1.471482813
 H       -5.713069076    -5.036662127     2.002669654
 H       -2.090454308     6.975355552    -5.177590847
 H       -2.347374759     8.489401048    -4.265759687
 H       -1.933240316     6.982112296    -3.403249124
 H       -6.148463474     7.666434275    -2.511496857
 H       -4.592242415     7.537837505    -1.655891034
 H       -4.924758899     8.960363538    -2.665632234
 H       -5.699651103    12.264547477     0.172792044
 H       -4.464923098    12.645683279     1.405467590
 H       -5.135527014    13.938675298     0.381536541
 H       -1.209540215    13.593244174    -1.267115083
 H       -2.303492685    14.767507053    -0.494742769
 H       -1.561944681    13.468005802     0.474912387
 H       -0.317056969    -0.323339678    -2.454157577
 H       -0.316023156    -1.888953688    -1.597456632
 H       -1.758036939    -0.845414880    -1.550150387
 H       -0.328510710    -0.390583682     2.442890275
 H       -1.704323841    -1.037065666     1.505984961
 H       -0.168166774    -1.929441913     1.560428447

