139   

Si        0.000000000     0.000000000     0.000000000
 C        1.869344003     0.000000000     0.000000000
 C       -0.644084752     1.730123799     0.000000000
 C        0.126368653     2.785902653     0.498200060
 C       -0.368557264     4.089799763     0.494125626
 C       -1.644953613     4.367644689    -0.002404408
 C       -2.417212391     3.308258131    -0.497083304
 C       -1.925320271     2.005567975    -0.494951095
 C       -2.205656261     5.714647674    -0.027531083
 C       -1.573997081     6.815901634     0.413356794
 C       -2.138307234     8.161621061     0.386500820
 C       -1.369958538     9.225243931     0.879321220
 C       -1.867036651    10.525840455     0.873815740
 C       -3.149295629    10.792236614     0.377040825
 C       -3.917919570     9.733352829    -0.115711645
 C       -3.415273682     8.432418187    -0.112416678
Si       -3.802827605    12.515602789     0.371897844
 C       -5.610363172    12.467399556     0.080231038
 C       -6.249411654    13.044065756    -0.945538300
 C       -7.700094134    12.980491206    -1.140945800
 C       -8.263698517    13.623068815    -2.253844233
 C       -9.630594994    13.589599624    -2.479044712
 C      -10.479332441    12.924136367    -1.573858900
 C       -9.922182537    12.280610709    -0.461279129
 C       -8.545922242    12.303088269    -0.259839099
 N      -11.875752114    12.926974954    -1.863949518
 C      -12.461647033    14.285495373    -1.837183504
 C      -12.683678045    11.952774590    -1.109571664
 C      -12.312746536    14.996107410    -0.479384768
 C      -12.342535198    16.524817801    -0.651316359
 N      -11.707649121    17.263876493     0.450020920
 C      -10.299155486    17.258007405     0.532496120
 C       -9.483152294    16.640276959    -0.433290760
 C       -8.100907843    16.663434386    -0.304642920
 C       -7.481181195    17.336309641     0.755452260
 C       -8.294602315    17.972778382     1.699928200
 C       -9.676845890    17.942709559     1.596169817
 C      -12.421601104    17.114085718     1.731347832
 C       -6.019366362    17.334488292     0.851693439
 C       -5.339359496    17.949595244     1.828461826
Si       -3.520178919    17.999604750     2.027329687
 C       -2.992731733    19.767274076     1.977495215
 C       -3.780308337    20.719485518     1.321940147
 C       -3.387059936    22.056518960     1.280900479
 C       -2.196351264    22.469537275     1.885332640
 C       -1.406959625    21.512522118     2.537020950
 C       -1.798610669    20.176809006     2.582869301
 C       -1.745615912    23.857512031     1.867260683
 C       -2.407694491    24.868070800     1.278744265
 C       -1.958256666    26.256384997     1.259849949
 C       -0.770003724    26.673330693     1.866152935
 C       -0.379182236    28.011306298     1.823354650
 C       -1.165287457    28.962076603     1.163718277
 C       -2.355918132    28.546511128     0.554420580
 C       -2.747791769    27.211137795     0.605657405
Si       -0.651563163    30.734597135     1.104637966
 C        1.210607194    30.867252496     1.205417866
 C       -1.227277195    31.511391889    -0.495513371
 C       -1.428583154    31.620460990     2.554780624
 C       -3.092668335    17.225713350     3.673125734
 C       -2.637419206    17.099257443     0.651532534
 C       -3.529679095    13.310474775     2.040491884
 C       -2.926947090    13.490790792    -0.957899186
 C       -0.602131658    -0.897524137    -1.525739382
 C       -0.631032911    -0.861304266     1.533499336
 H        1.131684960     2.631069355     0.899758592
 H        0.252732789     4.894382976     0.883645654
 H       -3.414269481     3.502293554    -0.888490006
 H       -2.573793839     1.220969597    -0.894509759
 H       -3.215026281     5.781262538    -0.444848737
 H       -0.564995471     6.750628987     0.830698504
 H       -0.372525306     9.035402907     1.271388905
 H       -1.223167232    11.315553464     1.270684885
 H       -4.924891915     9.884219718    -0.518834730
 H       -4.031480866     7.624780428    -0.503894530
 H       -6.163908489    11.909200247     0.853658547
 H       -5.729652355    13.611287334    -1.728225529
 H       -7.619103250    14.148075203    -2.959026034
 H      -10.052780373    14.066084144    -3.361290915
 H      -10.553194720    11.765056901     0.256608267
 H       -8.132249315    11.793615199     0.611786393
 H      -13.695752385    11.918509481    -1.548908847
 H      -12.778212394    12.174227508    -0.035556158
 H      -12.246519416    10.945805705    -1.229756515
 H      -13.505582917    17.021101315     1.556448446
 H      -12.271956218    18.024016749     2.339904074
 H      -12.085514709    16.241017417     2.313835347
 H       -9.919211443    16.105930761    -1.273736646
 H       -7.492952917    16.141549447    -1.045742507
 H       -7.840311922    18.507639919     2.535720590
 H      -10.278142561    18.456977982     2.340150246
 H       -5.529626284    16.772431550     0.046280749
 H       -5.868880369    18.499913331     2.624701746
 H       -4.722253029    20.453796191     0.829684030
 H       -4.019763827    22.779798160     0.769337963
 H       -0.476364960    21.813831518     3.014200673
 H       -1.144141692    19.475580443     3.107230885
 H       -0.797304268    24.037581238     2.382007931
 H       -3.356132921    24.687946488     0.763772331
 H       -0.137482840    25.952243174     2.380979910
 H        0.559229999    28.276719896     2.318151489
 H       -3.010287364    29.244044246     0.024416824
 H       -3.677929919    26.908224107     0.128103010
 H      -11.970036331    14.875358945    -2.644717936
 H      -13.532650728    14.209506513    -2.123640322
 H      -13.100757929    14.669186995     0.219342740
 H      -11.356383766    14.697813978     0.001185892
 H      -11.847968849    16.831135009    -1.602615562
 H      -13.394191807    16.883145087    -0.736010487
 H        2.267988261    -1.026961357    -0.081494738
 H        2.279088724     0.439777702     0.926180929
 H        2.269643464     0.579416453    -0.851646629
 H        1.543073807    31.914028238     1.087920394
 H        1.697066664    30.273490542     0.410400033
 H        1.595401811    30.506128567     2.175139100
 H       -0.849836902    30.950891677    -1.370006606
 H       -2.328697832    31.536808909    -0.565923121
 H       -0.866537448    32.551329884    -0.587085252
 H       -1.107231977    31.178214263     3.514996424
 H       -1.151630424    32.689158591     2.569259419
 H       -2.531235432    31.560783979     2.518645809
 H       -3.543996672    17.787345914     4.510911056
 H       -3.464665808    16.186519300     3.733061199
 H       -2.001944152    17.198546281     3.839373327
 H       -2.910725379    17.508684362    -0.337679872
 H       -1.541222669    17.190973152     0.752932721
 H       -2.883202962    16.022690881     0.654015319
 H       -3.859081632    12.646604540     2.860136126
 H       -2.466292176    13.549667706     2.211984120
 H       -4.105071556    14.251159911     2.130181144
 H       -3.066438924    13.026077667    -1.951165780
 H       -3.303255018    14.528073311    -1.017657755
 H       -1.839445184    13.538918229    -0.770076137
 H       -0.299861974    -0.366238017    -2.446546782
 H       -0.184823879    -1.918703857    -1.579354487
 H       -1.702144628    -0.988991239    -1.540547698
 H       -0.287932298    -0.350287924     2.451191362
 H       -1.735339018    -0.878183848     1.560136105
 H       -0.279199295    -1.906760947     1.581884926

