139   

Si        0.000000000     0.000000000     0.000000000
 C        1.868787550     0.000000000     0.000000000
 C       -0.582144196     1.751629326     0.000000000
 C       -0.469272028     2.521651245    -1.163790016
 C       -0.903583617     3.845653979    -1.181819741
 C       -1.467369575     4.430202427    -0.043326402
 C       -1.579193684     3.657643480     1.119262425
 C       -1.139102747     2.335826994     1.143098186
 C       -1.934633662     5.812197240    -0.019221584
 C       -1.875274328     6.654352312    -1.064893823
 C       -2.340364050     8.037066810    -1.048226725
 C       -2.904763357     8.629491269     0.084088037
 C       -3.335690337     9.955946898     0.053115554
 C       -3.180220163    10.725820698    -1.102687196
 C       -2.598970501    10.139581358    -2.235338315
 C       -2.184195739     8.811237065    -2.206083853
Si       -3.737157342    12.481258211    -1.181138872
 C       -2.375197403    13.566620920    -1.739935206
 C       -2.416827519    14.327729819    -2.841395619
 C       -1.328923284    15.196758065    -3.290656564
 C       -1.496382578    15.944206666    -4.462464515
 C       -0.495930628    16.782922700    -4.931300607
 C        0.677510932    16.986134308    -4.175428695
 C        0.838451929    16.245404022    -2.985023063
 C       -0.134832512    15.345859630    -2.578400223
 N        1.706008290    17.829971054    -4.626640883
 C        1.408963174    18.786901224    -5.706596343
 C        2.603665311    18.366905249    -3.587930730
 C        0.264000903    19.781179872    -5.439887477
 C        0.671702171    20.980912893    -4.563995888
 N       -0.316593417    21.357382968    -3.527704651
 C       -0.369340830    20.394713704    -2.462315386
 C        0.545110166    20.590416601    -1.415791595
 C        0.565886626    19.709721253    -0.344639121
 C       -0.300191903    18.607081667    -0.303124731
 C       -1.212749973    18.426111495    -1.345806659
 C       -1.265312388    19.321809643    -2.409522512
 C       -1.637290489    21.699650115    -4.086504158
 C       -0.233297937    17.710262082     0.854267857
 C       -1.002791986    16.626473002     1.014205272
Si       -0.928972928    15.496531060     2.457211366
 C       -0.501493873    13.828680443     1.797127429
 C        0.376199985    13.750601117     0.709294434
 C        0.730929043    12.515069118     0.173412541
 C        0.221717569    11.330940357     0.714876984
 C       -0.651782527    11.411946277     1.806921634
 C       -1.008710520    12.646713242     2.346005804
 C        0.570569349    10.019102714     0.180420494
 C        1.396707828     9.824565631    -0.861474942
 C        1.754741945     8.520533415    -1.406745878
 C        1.259013867     7.324218936    -0.882454997
 C        1.627193555     6.098644747    -1.434308336
 C        2.491221505     6.042288727    -2.533173412
 C        2.982251862     7.240014659    -3.066216595
 C        2.615468160     8.463513644    -2.510541537
Si        2.968692904     4.411252250    -3.251739394
 C        4.559055578     4.557488260    -4.222476386
 C        3.200621768     3.173991834    -1.870244153
 C        1.590855058     3.839999970    -4.380321934
 C        0.374770790    16.010986987     3.688556867
 C       -2.610538572    15.478563615     3.269063410
 C       -5.198193824    12.565242280    -2.345172437
 C       -4.259949556    13.076909107     0.512862206
 C       -0.634042041    -0.852621113    -1.538092229
 C       -0.627471885    -0.906310224     1.508777614
 H       -0.048088857     2.116153600    -2.088801078
 H       -0.816300700     4.422368683    -2.102616852
 H       -2.014214043     4.091344859     2.017427395
 H       -1.251173776     1.783432597     2.079666075
 H       -2.357504852     6.136480260     0.935274497
 H       -1.449062506     6.328733833    -2.020142992
 H       -3.025614882     8.053826013     0.999184683
 H       -3.781560158    10.362419493     0.964481826
 H       -2.439452324    10.699853126    -3.162164699
 H       -1.726201990     8.373397347    -3.091799300
 H       -1.487280693    13.543089495    -1.085372393
 H       -3.289610216    14.358533252    -3.507279273
 H       -2.416835988    15.847063266    -5.038749369
 H       -0.634173824    17.281332769    -5.884951135
 H        1.732958219    16.360030156    -2.380283736
 H        0.029806467    14.757739163    -1.672837612
 H        3.297622563    19.106335446    -4.017033616
 H        3.222526001    17.543153958    -3.186894171
 H        2.060006516    18.841376080    -2.750518088
 H       -1.521195792    22.586488163    -4.732975719
 H       -2.315199399    21.979175900    -3.260886664
 H       -2.115492236    20.902013642    -4.673845859
 H        1.219387761    21.444721212    -1.449844265
 H        1.267986730    19.877900718     0.471380947
 H       -1.893385682    17.571959577    -1.337677533
 H       -1.991924506    19.167448233    -3.203135880
 H        0.519410535    18.018136793     1.592063166
 H       -1.750378544    16.336129681     0.256370186
 H        0.817402249    14.645043229     0.254341649
 H        1.410383431    12.478795328    -0.677270827
 H       -1.061815681    10.500085493     2.236943790
 H       -1.691865625    12.650442350     3.198348643
 H        0.096616154     9.172806098     0.686176810
 H        1.857036420    10.674974989    -1.374075139
 H        0.579057103     7.339622684    -0.030536277
 H        1.220199497     5.196381305    -0.964370414
 H        3.660132516     7.258427606    -3.923028295
 H        3.006002382     9.384112642    -2.939784141
 H        2.344363944    19.336945858    -5.954493011
 H        1.169951441    18.183934027    -6.616861525
 H       -0.133766300    20.142700359    -6.405658530
 H       -0.580558836    19.244984510    -4.959227825
 H        1.637614265    20.785991239    -4.048580823
 H        0.837536955    21.880866494    -5.197114602
 H        2.269935112    -1.028076037    -0.030543894
 H        2.270032676     0.487557804     0.906923913
 H        2.273145699     0.543555014    -0.873432914
 H        4.890543690     3.573345882    -4.597926918
 H        5.374305828     4.964806306    -3.597757811
 H        4.445426463     5.221742385    -5.096766837
 H        3.985119612     3.504526453    -1.165560751
 H        2.270584082     3.039925091    -1.285872561
 H        3.497605523     2.185331114    -2.260318787
 H        1.429487102     4.554982044    -5.206711626
 H        1.821997595     2.858559754    -4.829288733
 H        0.634472644     3.743563363    -3.836149134
 H        1.379391533    16.036742219     3.229029275
 H        0.167981839    17.014104261     4.101781640
 H        0.423020673    15.306328937     4.538371559
 H       -3.388009435    15.102783262     2.578524265
 H       -2.621269482    14.837838031     4.167621970
 H       -2.911515239    16.494292855     3.583753496
 H       -4.924384391    12.233203791    -3.362379161
 H       -6.020252865    11.913810914    -1.998333854
 H       -5.596532972    13.592056594    -2.420174708
 H       -3.450349792    12.919883851     1.250353279
 H       -4.494987892    14.156235022     0.499262288
 H       -5.155551932    12.543177365     0.872650314
 H       -0.248054520    -0.378407563    -2.457488573
 H       -0.333099633    -1.914833470    -1.560533440
 H       -1.737732886    -0.819140242    -1.586172889
 H       -0.233540660    -0.467415970     2.442400490
 H       -1.730590261    -0.879712062     1.564648942
 H       -0.323479376    -1.968270969     1.490680188

