139   

Si        0.000000000     0.000000000     0.000000000
 C        1.869128116     0.000000000     0.000000000
 C       -0.601654249     1.745107103     0.000000000
 C       -0.173724095     2.628107215    -0.998854821
 C       -0.617423420     3.949426339    -1.015012897
 C       -1.500478429     4.418648596    -0.037704794
 C       -1.928755465     3.533094044     0.959240367
 C       -1.485762069     2.212343672     0.978875798
 C       -1.992224157     5.792196215    -0.013162841
 C       -1.661791598     6.741933115    -0.904658587
 C       -2.157640389     8.114252471    -0.873983049
 C       -3.040877774     8.572525112     0.108688290
 C       -3.490767686     9.891137225     0.102183348
 C       -3.069994806    10.782329493    -0.893104740
 C       -2.187474080    10.326282292    -1.877870602
 C       -1.736324170     9.007727469    -1.866529034
Si       -3.687838186    12.519925064    -0.867496208
 C       -3.146654129    13.345202797     0.676449827
 C       -2.413138888    12.765822444     1.636027112
 C       -1.986292400    13.434157068     2.865400891
 C       -1.219728501    12.717273092     3.793873418
 C       -0.788958765    13.301627229     4.974405951
 C       -1.065710922    14.659644932     5.243211482
 C       -1.842815547    15.377319966     4.312432223
 C       -2.319233178    14.758360904     3.165195183
 N       -0.629064395    15.253534027     6.440775646
 C        0.575733041    14.689696242     7.080469706
 C       -0.691421110    16.724157077     6.502825607
 C        1.818129309    14.569782025     6.178771933
 C        2.613326469    15.883022821     6.045699381
 N        3.087636974    16.185656469     4.675428257
 C        2.008486525    16.563131377     3.808570747
 C        1.605729850    17.906863378     3.875498812
 C        0.569506858    18.357795126     3.071842677
 C       -0.104179179    17.482103655     2.207685387
 C        0.313568838    16.150079671     2.138917955
 C        1.377847352    15.694813900     2.911200849
 C        3.965447634    15.136508227     4.126209126
 C       -1.191867444    18.013390935     1.381056940
 C       -1.909281179    17.281567287     0.519477976
Si       -3.273478655    17.921924692    -0.524891615
 C       -2.801120245    17.633964328    -2.283957435
 C       -1.452266180    17.538090691    -2.647148055
 C       -1.094366013    17.320648188    -3.975213741
 C       -2.072739948    17.191200596    -4.969648242
 C       -3.418290385    17.286350432    -4.602701453
 C       -3.780322098    17.505620610    -3.274239310
 C       -1.647900263    16.964230255    -6.347138515
 C       -2.481952681    16.824694957    -7.391480628
 C       -2.057412272    16.597713310    -8.769097298
 C       -0.712795574    16.502315576    -9.137800633
 C       -0.351847729    16.284652712   -10.467183282
 C       -1.329988050    16.149918955   -11.457896739
 C       -2.678483444    16.244628689   -11.090734396
 C       -3.035930942    16.468755784    -9.763622139
Si       -0.860577510    15.861556444   -13.220305643
 C        0.816822617    15.041904081   -13.316749969
 C       -2.123307853    14.753098040   -14.039812161
 C       -0.806468494    17.513895057   -14.090981960
 C       -4.839569682    17.001246191    -0.092857416
 C       -3.533038193    19.752981677    -0.268673840
 C       -3.016829823    13.496450141    -2.311617618
 C       -5.555359271    12.512080553    -0.934492334
 C       -0.638642030    -0.846774687    -1.538922511
 C       -0.613521097    -0.915133637     1.509976775
 H        0.514675051     2.318974464    -1.790483596
 H       -0.269368452     4.616996767    -1.801331049
 H       -2.616700138     3.877127200     1.729511125
 H       -1.854444422     1.568451033     1.781971172
 H       -2.677848863     6.016261267     0.809722514
 H       -0.977778126     6.519899809    -1.728818408
 H       -3.384952811     7.897950363     0.890629916
 H       -4.179978267    10.192080260     0.897769266
 H       -1.825013075    10.978181126    -2.677909492
 H       -1.049233661     8.671641325    -2.640769395
 H       -3.484635652    14.388520259     0.769807416
 H       -2.062318673    11.725749255     1.567635114
 H       -0.964576045    11.675613753     3.593153661
 H       -0.238934809    12.700686542     5.691930223
 H       -2.086795378    16.422158629     4.479544148
 H       -2.942261558    15.333775676     2.477564936
 H       -0.273982224    17.086359312     7.455615514
 H       -1.750846635    17.039663810     6.477629833
 H       -0.155119285    17.219584902     5.673300918
 H        4.868199013    15.073818646     4.758113988
 H        4.291688436    15.433203578     3.113828560
 H        3.512988210    14.135290702     4.067371588
 H        2.126420724    18.586702151     4.547636369
 H        0.275317805    19.405807235     3.118058215
 H       -0.192631007    15.448325523     1.471281026
 H        1.692064573    14.657248497     2.829672701
 H       -1.367385266    19.085624250     1.539547520
 H       -1.709916837    16.204584769     0.379985415
 H       -0.645215604    17.626228375    -1.911457833
 H       -0.040948870    17.249388687    -4.240530511
 H       -4.197653178    17.189086275    -5.356152912
 H       -4.848028560    17.569139026    -3.047321764
 H       -0.564268721    16.912360558    -6.488820199
 H       -3.565631179    16.877429168    -7.250154582
 H        0.068103627    16.599053847    -8.385432337
 H        0.716106275    16.220950597   -10.693708305
 H       -3.486510703    16.147226898   -11.821076686
 H       -4.089215652    16.541417908    -9.498615230
 H        0.812692574    15.291213498     7.985574651
 H        0.295767735    13.677775461     7.462709631
 H        2.476112232    13.772473639     6.569490729
 H        1.506871116    14.220391085     5.171523817
 H        2.004796337    16.748512842     6.388859405
 H        3.510818984    15.858133518     6.702814921
 H        2.270711152    -1.028535461     0.010305818
 H        2.268591438     0.522796565     0.888092161
 H        2.275811300     0.507913239    -0.892199456
 H        1.083506920    14.801719858   -14.361489770
 H        0.834002363    14.096577534   -12.744703592
 H        1.614166523    15.691061680   -12.914409305
 H       -2.227664486    13.796344554   -13.496514783
 H       -3.120609883    15.225053500   -14.077326380
 H       -1.831591741    14.514794319   -15.078158759
 H       -0.066508618    18.189479429   -13.624991073
 H       -0.532224042    17.400307779   -15.154459713
 H       -1.786505449    18.022398676   -14.050603728
 H       -4.801562242    15.949108692    -0.426088134
 H       -5.014711091    16.998791150     0.998682008
 H       -5.722290747    17.464458178    -0.567513868
 H       -2.619769984    20.327724304    -0.507828893
 H       -4.339052834    20.138456667    -0.918441830
 H       -3.810367304    19.981284280     0.775557047
 H       -1.916382061    13.589870359    -2.264404786
 H       -3.273622007    13.025512591    -3.276722757
 H       -3.425869257    14.523887580    -2.333622164
 H       -5.989268880    11.975039770    -0.072454103
 H       -5.965726888    13.536864385    -0.929259249
 H       -5.916879919    12.012320595    -1.851186339
 H       -0.292303483    -0.336483529    -2.455171861
 H       -0.299002294    -1.896010303    -1.591712193
 H       -1.743597091    -0.851994449    -1.562934254
 H       -0.272956217    -0.430685441     2.442517682
 H       -1.716731585    -0.960477848     1.537364306
 H       -0.240951574    -1.955137372     1.523350896

