139   

Si        0.000000000     0.000000000     0.000000000
 C        1.868906127     0.000000000     0.000000000
 C       -0.663921289     1.722200204     0.000000000
 C        0.179119966     2.837033301     0.004710487
 C       -0.350779940     4.127736067     0.004590860
 C       -1.732753402     4.332296546    -0.000529126
 C       -2.576699792     3.213129528    -0.005252946
 C       -2.051076052     1.924308943    -0.004860276
 C       -2.333565385     5.662066999    -0.000868020
 C       -1.643482996     6.815180033     0.003597571
 C       -2.249706449     8.142840306     0.003234201
 C       -1.412854428     9.266815495     0.008232276
 C       -1.946898157    10.553200690     0.008089799
 C       -3.333525869    10.744475503    -0.005503922
 C       -4.171586804     9.624400798    -0.011587378
 C       -3.633690280     8.338172163    -0.004222530
Si       -4.055425318    12.441147032    -0.005873800
 C       -5.724084003    12.345468329    -0.755102170
 C       -6.875724499    12.679475798    -0.159196745
 C       -8.187145040    12.582903566    -0.807500324
 C       -9.326332088    12.962603821    -0.080863690
 C      -10.588483853    12.889684970    -0.649096954
 C      -10.734406865    12.440506971    -1.971906685
 C       -9.605764198    12.055620809    -2.702863657
 C       -8.345633246    12.119955763    -2.115522943
 N      -12.074621978    12.396214402    -2.480772548
 C      -12.528002298    13.726153153    -2.943356845
 C      -12.316096827    11.328373957    -3.467280015
 C      -11.871107478    14.210901202    -4.251537328
 C      -11.919154839    15.744794925    -4.387015845
 N      -10.654542307    16.431846280    -4.053262252
 C      -10.239917346    16.330842771    -2.703315535
 C      -11.164081684    16.671205212    -1.694134683
 C      -10.801722350    16.587358611    -0.360064079
 C       -9.499198212    16.224610625     0.014277412
 C       -8.576005270    15.923684615    -0.989898407
 C       -8.931762431    15.979943760    -2.332599146
 C       -9.612139197    16.216561018    -5.071603076
 C       -9.174826011    16.152757551     1.439336117
 C       -7.973253941    15.820144094     1.930200414
Si       -7.585754631    15.735508879     3.719163503
 C       -9.090881952    16.174165651     4.690574423
 C       -9.146861955    17.319039228     5.489280503
 C      -10.300796332    17.623340327     6.212406106
 C      -11.423883304    16.795067344     6.146883067
 C      -11.366998193    15.649135042     5.341473901
 C      -10.216784503    15.341155626     4.621383441
 C      -12.651840402    17.072629700     6.884746324
 C      -12.838526799    18.132464640     7.689579037
 C      -14.067395619    18.408514020     8.426820058
 C      -15.188661493    17.576741388     8.361919040
 C      -16.343047470    17.878758227     9.083538361
 C      -16.399032084    19.017908068     9.893866410
 C      -15.276518150    19.852825088     9.960797373
 C      -14.127433465    19.552541330     9.233443382
Si      -17.927225547    19.418601830    10.849763183
 C      -18.833003031    17.845917701    11.298228551
 C      -17.479948075    20.328450744    12.420458387
 C      -19.020375378    20.495360220     9.783495588
 C       -7.082267243    13.986026203     4.142796529
 C       -6.173930394    16.902172684     4.081884883
 C       -4.117272196    13.070530954     1.749901257
 C       -3.025126982    13.594687686    -1.054200222
 C       -0.614794493    -0.877713700    -1.531430424
 C       -0.615398197    -0.877233912     1.531425688
 H        1.268198750     2.740176982     0.008627306
 H        0.327624315     4.979102673     0.008611622
 H       -3.656582296     3.350625662    -0.009024944
 H       -2.758820892     1.090475539    -0.008411121
 H       -3.427892545     5.668471901    -0.004850696
 H       -0.549707655     6.810873299     0.007886684
 H       -0.332395855     9.136246703     0.013480562
 H       -1.245465876    11.391775026     0.014372027
 H       -5.263255676     9.715666480    -0.023006717
 H       -4.306556984     7.482257799    -0.006794749
 H       -5.709844869    11.974335820    -1.793713668
 H       -6.928011373    13.052966222     0.872630485
 H       -9.220632463    13.329846739     0.942008378
 H      -11.472068454    13.180283000    -0.082186143
 H       -9.704350661    11.703393424    -3.725061732
 H       -7.475977633    11.811161703    -2.696141598
 H      -13.404165267    11.252400528    -3.636709362
 H      -11.980640790    10.365261436    -3.044036546
 H      -11.822520771    11.473159620    -4.439190771
 H      -10.025419697    16.449096505    -6.067865920
 H       -9.207052424    15.192405136    -5.093608969
 H       -8.782065367    16.924622054    -4.895290381
 H      -12.163589133    17.001948986    -1.963998144
 H      -11.537296766    16.827468981     0.408860196
 H       -7.558679883    15.627912463    -0.726212269
 H       -8.190625681    15.717790658    -3.081172733
 H      -10.029312965    16.405474434     2.085656936
 H       -7.128121015    15.580649163     1.267014113
 H       -8.301657413    18.007330590     5.577085116
 H      -10.317965549    18.519461282     6.830267462
 H      -12.231545747    14.990920941     5.277449131
 H      -10.231023926    14.433007108     4.009918389
 H      -13.448009420    16.336299228     6.740531583
 H      -12.042665135    18.869153977     7.834730421
 H      -15.169404291    16.681304560     7.743196809
 H      -17.187745123    17.190456862     8.990867125
 H      -15.261665174    20.755924379    10.577273245
 H      -13.266123796    20.215233305     9.297054128
 H      -13.632612226    13.678834609    -3.060078939
 H      -12.326080114    14.452617288    -2.120409386
 H      -10.818907493    13.864732134    -4.286770091
 H      -12.366980838    13.739676806    -5.117792531
 H      -12.184779338    16.025840582    -5.431849263
 H      -12.727926146    16.171962136    -3.753028529
 H        2.266208117    -1.030905741     0.006051980
 H        2.274705924     0.514800609     0.889111552
 H        2.274267441     0.504245668    -0.895318422
 H      -19.713215775    18.058805773    11.930745297
 H      -18.179654216    17.154510827    11.860804000
 H      -19.192860452    17.310315646    10.402471253
 H      -16.767234291    19.745037829    13.031231582
 H      -17.015158790    21.307330380    12.209285306
 H      -18.373987960    20.515053398    13.041780377
 H      -19.299633949    19.981325193     8.846187702
 H      -19.953985183    20.765676615    10.307372490
 H      -18.509910736    21.434388923     9.503393938
 H       -7.872995880    13.260065201     3.881497427
 H       -6.163532865    13.686458701     3.607463257
 H       -6.884907464    13.883077852     5.225124244
 H       -6.426038969    17.940347475     3.798448348
 H       -5.915107099    16.900750525     5.155530173
 H       -5.264090937    16.621884391     3.521707500
 H       -4.737200120    12.414909237     2.388835356
 H       -3.108216015    13.103997154     2.198700122
 H       -4.536117597    14.091962377     1.796744536
 H       -2.898249850    13.201683181    -2.079019364
 H       -3.498231372    14.590152667    -1.137994809
 H       -2.017464077    13.740697347    -0.628088438
 H       -0.272439168    -0.366485858    -2.449576899
 H       -0.248199843    -1.918423333    -1.573172870
 H       -1.718113417    -0.910716671    -1.564958089
 H       -0.267830733    -0.369315675     2.449512962
 H       -1.718789621    -0.904614659     1.567819139
 H       -0.254029487    -1.919878366     1.570497606

