139   

Si        0.000000000     0.000000000     0.000000000
 C        1.868937592     0.000000000     0.000000000
 C       -0.651628544     1.726782281     0.000000000
 C        0.195015061     2.828892155    -0.150913673
 C       -0.319739893     4.125347269    -0.147863567
 C       -1.692065026     4.349043454    -0.008503897
 C       -2.539515129     3.242591749     0.140213440
 C       -2.027641101     1.948010496     0.149207454
 C       -2.274446593     5.686500511     0.000196721
 C       -1.570727356     6.824932160    -0.122137192
 C       -2.150726142     8.163737267    -0.113749037
 C       -3.522802842     8.384357244     0.025708639
 C       -4.038486446     9.680381079     0.028876703
 C       -3.189609603    10.781958701    -0.106888168
 C       -1.812133285    10.564639795    -0.247059930
 C       -1.300827442     9.269987181    -0.250567007
Si       -3.837764243    12.510415792    -0.106921864
 C       -2.919207740    13.377527766     1.218950079
 C       -2.136592764    14.452991778     1.063086859
 C       -1.425744409    15.103951712     2.165803816
 C       -0.631029265    16.224933470     1.897223690
 C        0.059502800    16.872285322     2.911164630
 C        0.039522332    16.371967901     4.226549157
 C       -0.749028565    15.235672890     4.495661832
 C       -1.482307912    14.634299894     3.482441332
 N        0.731611016    17.008434176     5.277246024
 C        1.680455451    18.079228763     4.937776700
 C        1.216747832    16.126825001     6.354566856
 C        2.953746280    17.594125426     4.219679660
 C        3.762271040    18.786963327     3.673699023
 N        4.358975178    18.546024021     2.344086966
 C        3.448329320    18.263993818     1.302446755
 C        2.230335353    18.973629220     1.238943486
 C        1.319252351    18.716320770     0.227214412
 C        1.613946785    17.808108674    -0.799569223
 C        2.836311286    17.132801271    -0.754875892
 C        3.742667737    17.348909313     0.276051905
 C        5.561713290    17.698994261     2.416777674
 C        0.615655771    17.572779124    -1.844486113
 C        0.788600461    16.729495222    -2.870835192
Si       -0.435885629    16.409936760    -4.194722716
 C       -0.906095210    14.626199985    -4.211131138
 C       -0.110675950    13.654421598    -3.596027621
 C       -0.485669473    12.310956352    -3.620755216
 C       -1.649665297    11.906836850    -4.280068490
 C       -2.442113030    12.882249355    -4.901368645
 C       -2.079316056    14.225743566    -4.863761953
 C       -2.085715183    10.516374300    -4.335388928
 C       -1.426968034     9.482361803    -3.785730384
 C       -1.873224666     8.094401810    -3.847557243
 C       -3.050102222     7.712329809    -4.498057379
 C       -3.441342117     6.375463553    -4.534415986
 C       -2.644265130     5.384300852    -3.949448174
 C       -1.457505913     5.762121306    -3.312243184
 C       -1.077976522     7.101941685    -3.262187321
Si       -3.183208694     3.620575876    -4.010239127
 C       -3.688598451     3.191479519    -5.759565182
 C       -1.793103839     2.491796209    -3.484412448
 C       -4.640613360     3.413045153    -2.858545081
 C       -1.969630015    17.445158763    -3.927422189
 C        0.347514897    16.835783626    -5.836060816
 C       -3.564423971    13.296897230    -1.770599235
 C       -5.659871880    12.548307712     0.308017696
 C       -0.624597545    -0.859945475    -1.537801654
 C       -0.615956890    -0.885598124     1.525857997
 H        1.276057955     2.717384896    -0.269307484
 H        0.362787658     4.966376599    -0.256025190
 H       -3.610709309     3.395013672     0.261750897
 H       -2.737171725     1.125356918     0.273704650
 H       -3.362571504     5.712769961     0.106154856
 H       -0.483008682     6.798606841    -0.234067948
 H       -4.204058205     7.541797916     0.125503346
 H       -5.120499156     9.790798961     0.137275126
 H       -1.103523805    11.392294764    -0.355203154
 H       -0.229240479     9.117775402    -0.358057231
 H       -3.065945331    12.922595146     2.212359283
 H       -1.962988964    14.930049540     0.089093367
 H       -0.552950184    16.605631510     0.876094965
 H        0.636589606    17.759207872     2.663389233
 H       -0.806784049    14.831480220     5.501198038
 H       -2.100262936    13.767643378     3.723226464
 H        1.880225958    16.678985839     7.038878912
 H        1.760670861    15.244339227     5.980292524
 H        0.352962678    15.783386934     6.952940864
 H        6.217343963    18.056991177     3.228584136
 H        6.136818185    17.799894496     1.478729326
 H        5.342079383    16.633337709     2.591169507
 H        1.997274562    19.725523500     1.988352920
 H        0.368073625    19.250866751     0.219627884
 H        3.089543179    16.414383524    -1.535891498
 H        4.672642837    16.789554743     0.278883631
 H       -0.304539345    18.155258981    -1.702179624
 H        1.727378244    16.164621957    -2.987158115
 H        0.811536062    13.910038466    -3.065938132
 H        0.141256478    11.574448272    -3.121303651
 H       -3.353315751    12.588434610    -5.418788185
 H       -2.741356194    14.939894614    -5.360785890
 H       -3.024635989    10.353305201    -4.872385632
 H       -0.493705693     9.640750470    -3.237718277
 H       -3.681416121     8.462930066    -4.969563895
 H       -4.381143620     6.140230768    -5.040863627
 H       -0.800133995     5.031340836    -2.830816654
 H       -0.154318191     7.377808121    -2.757644700
 H        1.140561912    18.831256404     4.315076895
 H        1.949353261    18.608958541     5.880060236
 H        3.570949776    16.982811065     4.898986729
 H        2.672392819    16.908784330     3.392796609
 H        3.128797801    19.700859923     3.600074410
 H        4.578537918    19.056610592     4.379711642
 H        2.266691367    -1.030075235     0.036504723
 H        2.272646622     0.540158027     0.875031283
 H        2.276560053     0.477876488    -0.908355029
 H       -3.987989550     2.132148340    -5.840903970
 H       -2.855588369     3.357653041    -6.466250632
 H       -4.539628750     3.805380773    -6.101201274
 H       -0.905090564     2.612331983    -4.128670012
 H       -1.480504076     2.701739002    -2.441967731
 H       -2.095300411     1.430963154    -3.525438698
 H       -5.483146722     4.062916798    -3.152420171
 H       -5.003279148     2.371051111    -2.851969073
 H       -4.361732812     3.679759151    -1.822530965
 H       -2.481601507    17.168831931    -2.987264542
 H       -1.722215127    18.520402213    -3.872733981
 H       -2.695003213    17.317181196    -4.749535340
 H        1.242104009    16.217114209    -6.029922232
 H       -0.355433593    16.669432430    -6.671457260
 H        0.661889162    17.894341011    -5.867733047
 H       -2.487412461    13.339020263    -2.030500640
 H       -4.063691214    12.727150805    -2.575607173
 H       -3.951865539    14.330208412    -1.801195525
 H       -5.867560958    12.066450307     1.279402285
 H       -6.029002617    13.587997998     0.370711965
 H       -6.258364724    12.030454412    -0.461687870
 H       -0.285456135    -0.340432503    -2.452584316
 H       -0.261707742    -1.901239236    -1.591583187
 H       -1.728417452    -0.888914881    -1.564269019
 H       -0.281690585    -0.373572235     2.446634290
 H       -1.718863103    -0.929411772     1.555043463
 H       -0.240364186    -1.923170474     1.567296035

