139   

Si        0.000000000     0.000000000     0.000000000
 C        1.869523698     0.000000000     0.000000000
 C       -0.647674319     1.728729080     0.000000000
 C        0.180296970     2.815523478    -0.296886660
 C       -0.325603614     4.115411538    -0.292345411
 C       -1.668818825     4.358506574     0.006250975
 C       -2.497949131     3.267565340     0.300611028
 C       -1.996193670     1.968856936     0.296180718
 C       -2.241301822     5.700782303     0.022883917
 C       -1.556414370     6.826611462    -0.240988736
 C       -2.127124050     8.169615887    -0.224843748
 C       -1.295516036     9.257932109    -0.520353514
 C       -1.795099447    10.557952740    -0.517330522
 C       -3.143503671    10.798198091    -0.228329114
 C       -3.976402062     9.713545965     0.066497614
 C       -3.470975594     8.414192061     0.072243119
Si       -3.819452612    12.515489123    -0.220658606
 C       -5.603053180    12.418008395    -0.625643500
 C       -6.618509672    12.827867055     0.145749425
 C       -8.026484168    12.717982986    -0.244853386
 C       -9.019411867    13.176681695     0.634161562
 C      -10.362194997    13.092460265     0.305944027
 C      -10.762195511    12.559792014    -0.940057421
 C       -9.768846530    12.086281913    -1.816083382
 C       -8.428272819    12.145948340    -1.454045459
 N      -12.132152692    12.486631847    -1.246039091
 C      -12.981597145    13.628241039    -0.856245228
 C      -12.512478687    11.878559609    -2.528809132
 C      -12.415511573    15.027396627    -1.151884490
 C      -12.468309975    15.451494955    -2.633544225
 N      -11.162368206    15.675299258    -3.301214438
 C      -10.133358422    16.148926572    -2.445554794
 C      -10.357562781    17.360560100    -1.762608892
 C       -9.386576284    17.868656322    -0.914747768
 C       -8.164919341    17.203354546    -0.735250987
 C       -7.940727330    16.012975254    -1.431229181
 C       -8.904662166    15.492663537    -2.286066441
 C      -10.773647620    14.592561870    -4.218969856
 C       -7.170874135    17.780927125     0.171790114
 C       -5.976217256    17.226579458     0.412780394
Si       -4.692518460    17.896658369     1.532576372
 C       -4.421630764    16.593643106     2.812730682
 C       -5.478520604    15.741373191     3.160529290
 C       -5.298429620    14.751689777     4.122671604
 C       -4.062199552    14.593024885     4.763494907
 C       -3.011904477    15.447700066     4.416793151
 C       -3.188588330    16.439727558     3.452188789
 C       -3.923256236    13.541185503     5.764922526
 C       -2.797358667    13.281227787     6.450671390
 C       -2.660777885    12.228410622     7.452029538
 C       -3.713217792    11.375281113     7.796480548
 C       -3.539291979    10.382064473     8.759249252
 C       -2.304055359    10.215423778     9.395797261
 C       -1.248326266    11.068221841     9.051829957
 C       -1.426573794    12.063339453     8.093513404
Si       -2.085172888     8.896541080    10.669493808
 C       -3.029098268     7.366580199    10.156976011
 C       -0.276177612     8.461187525    10.849474855
 C       -2.744857116     9.535377615    12.296908052
 C       -3.135863640    18.172241012     0.538759004
 C       -5.224020559    19.478360707     2.364363624
 C       -3.518152733    13.216749548     1.477419049
 C       -2.994271501    13.584938603    -1.510909346
 C       -0.627791890    -0.866930839    -1.531623797
 C       -0.606984551    -0.886507438     1.530003355
 H        1.239354120     2.689502427    -0.537780834
 H        0.341043332     4.944328370    -0.523932924
 H       -3.547547420     3.434697867     0.535997464
 H       -2.690729565     1.158375884     0.533720024
 H       -3.305246877     5.741452736     0.274118176
 H       -0.492263566     6.785285729    -0.491586653
 H       -0.246161553     9.088736693    -0.753490292
 H       -1.099209369    11.367903487    -0.751219886
 H       -5.038450419     9.844161480     0.300251511
 H       -4.137331220     7.586749004     0.309217721
 H       -5.791145100    11.967617915    -1.614723432
 H       -6.472053202    13.283992238     1.133541158
 H       -8.732085707    13.610300853     1.593497801
 H      -11.112117789    13.431885538     1.014908745
 H      -10.032537842    11.652857827    -2.774875279
 H       -7.680673536    11.750236955    -2.144631969
 H      -13.603507172    11.709595893    -2.543299427
 H      -12.040883332    10.882487514    -2.618143294
 H      -12.242176353    12.482463383    -3.408798279
 H      -11.592455861    14.416808565    -4.936314747
 H      -10.522748809    13.643081811    -3.718929980
 H       -9.897024483    14.920215784    -4.808274189
 H      -11.295283449    17.891025736    -1.906235072
 H       -9.575839597    18.802909454    -0.387034651
 H       -7.003066338    15.466675473    -1.301592096
 H       -8.705918703    14.550813186    -2.792475180
 H       -7.498184266    18.719163801     0.636769508
 H       -5.678475923    16.281846534    -0.074522687
 H       -6.465334912    15.819263770     2.690225560
 H       -6.128579624    14.095534762     4.378632996
 H       -2.042104611    15.344813779     4.899995195
 H       -2.331223848    17.077281078     3.221312947
 H       -4.827155483    12.948157163     5.933600692
 H       -1.892331739    13.872208516     6.281827575
 H       -4.682433817    11.480395202     7.312035943
 H       -4.399592080     9.746084707     8.986044956
 H       -0.260971410    10.983961702     9.514096656
 H       -0.593403421    12.716459533     7.840253402
 H      -13.981990285    13.514039890    -1.328136525
 H      -13.154429824    13.533567536     0.244944225
 H      -12.972507852    15.767886384    -0.544878362
 H      -11.375796309    15.088931274    -0.764139332
 H      -13.060817511    14.720493894    -3.221911880
 H      -13.013595455    16.423191221    -2.715853115
 H        2.267742299    -1.027941330     0.071050579
 H        2.271507747     0.570328310     0.856716410
 H        2.277516460     0.447880384    -0.923223421
 H       -2.857235081     6.534918930    10.863037345
 H       -2.715232455     7.021548270     9.154641519
 H       -4.117170772     7.549231731    10.119539842
 H        0.161492014     8.161174598     9.879945915
 H        0.313704529     9.311222374    11.234685368
 H       -0.136496426     7.618881399    11.550360581
 H       -3.814193061     9.802290704    12.221094570
 H       -2.644553847     8.780367022    13.096252244
 H       -2.202401527    10.441220625    12.622606837
 H       -2.755809466    17.224350971     0.115605908
 H       -3.319031475    18.861389390    -0.305761260
 H       -2.331029514    18.609563899     1.154640484
 H       -6.146003817    19.333848532     2.956614041
 H       -4.446358255    19.850474263     3.055495881
 H       -5.421799633    20.275941979     1.625961411
 H       -3.978970973    12.591238222     2.264727640
 H       -2.438639171    13.277567979     1.704577831
 H       -3.933358147    14.236407405     1.584839256
 H       -3.093192880    13.150913019    -2.521467468
 H       -3.445512608    14.594154903    -1.536839366
 H       -1.917192197    13.709644184    -1.304918644
 H       -0.281849726    -0.358823633    -2.450009329
 H       -0.276059365    -1.912518378    -1.575861997
 H       -1.731908537    -0.883513296    -1.561536497
 H       -0.287297922    -0.360612521     2.448144256
 H       -1.708694392    -0.953328755     1.553770249
 H       -0.210535316    -1.915865581     1.580992623

