139   

Si        0.000000000     0.000000000     0.000000000
 C        1.869251934     0.000000000     0.000000000
 C       -0.646076107     1.729719812     0.000000000
 C        0.156586543     2.802179621    -0.401487371
 C       -0.343459337     4.104205171    -0.396909419
 C       -1.657135565     4.363166770     0.002833028
 C       -2.461771060     3.287027289     0.400305461
 C       -1.964839720     1.986357216     0.397759319
 C       -2.223228402     5.708089385     0.023844663
 C       -1.560617507     6.822166253    -0.330423388
 C       -2.126447196     8.167068071    -0.309495638
 C       -1.321547983     9.243392739    -0.705871088
 C       -1.818247726    10.544330486    -0.702258832
 C       -3.130388370    10.802305246    -0.285531173
 C       -3.934751793     9.729652562     0.112852356
 C       -3.438742151     8.426469927     0.095327240
Si       -3.785074580    12.527521238    -0.282113164
 C       -4.438097377    12.925149144    -1.947535055
 C       -4.427796805    12.076459373    -2.983725924
 C       -4.949155385    12.392336643    -4.315353447
 C       -4.877381665    11.410220444    -5.315837215
 C       -5.355607138    11.656674485    -6.591893918
 C       -5.960442031    12.893542559    -6.895306442
 C       -6.032000855    13.878743346    -5.899319527
 C       -5.511217077    13.630522380    -4.633371906
 N       -6.428763979    13.081759108    -8.220200196
 C       -7.480393643    12.140680242    -8.654808030
 C       -6.680584472    14.473049188    -8.625469358
 C       -8.926254304    12.511693168    -8.279631412
 C       -9.231738277    12.445246111    -6.771526945
 N       -9.455933690    11.094933782    -6.232530199
 C      -10.407644417    10.284249087    -6.860341866
 C      -11.565675070    10.869258685    -7.421005573
 C      -12.516932791    10.080612146    -8.045717900
 C      -12.383893003     8.685482463    -8.099740334
 C      -11.252033822     8.106008914    -7.519018523
 C      -10.279414842     8.881313257    -6.902671239
 C       -8.258042723    10.447172349    -5.684078452
 C      -13.419072222     7.899927306    -8.772740764
 C      -13.396345322     6.565243811    -8.884941237
Si      -14.669617774     5.546360833    -9.717677934
 C      -13.865245732     4.620719928   -11.097134730
 C      -12.664058534     5.076002081   -11.650646752
 C      -12.055343090     4.377647836   -12.692814302
 C      -12.635839640     3.215607389   -13.208375815
 C      -13.841599491     2.764462282   -12.654891961
 C      -14.451092216     3.457985092   -11.612348624
 C      -12.035608181     2.452242855   -14.297734744
 C      -10.885997611     2.773956473   -14.914758793
 C      -10.286494935     2.009990046   -16.004054380
 C      -10.866322734     0.846572934   -16.517560157
 C      -10.258871939     0.147193478   -17.559749636
 C       -9.059823764     0.601931067   -18.119185881
 C       -8.477386526     1.768175279   -17.607268092
 C       -9.082381955     2.460322747   -16.561033189
Si       -8.255308772    -0.323882968   -19.499104738
 C       -9.552978273    -1.182930477   -20.535143635
 C       -7.295173814     0.854112206   -20.588058763
 C       -7.096413453    -1.589956584   -18.760292687
 C      -15.366617925     4.351249037    -8.461582243
 C      -16.040863093     6.595546867   -10.428689707
 C       -5.168194235    12.697708403     0.962257201
 C       -2.420790351    13.731940716     0.140099575
 C       -0.629488617    -0.862735149    -1.533062041
 C       -0.604900551    -0.892459947     1.527275275
 H        1.191916143     2.662703543    -0.724762849
 H        0.303390867     4.921652856    -0.710633235
 H       -3.488247666     3.466427574     0.715232909
 H       -2.639477071     1.187515274     0.718196139
 H       -3.263445438     5.760952775     0.358935041
 H       -0.520392170     6.768780960    -0.664993760
 H       -0.296276801     9.063433948    -1.024059745
 H       -1.145586530    11.342515470    -1.029777679
 H       -4.966852829     9.870398973     0.446777485
 H       -4.086029255     7.608429263     0.406330774
 H       -4.852010491    13.940557685    -2.040709333
 H       -4.019112303    11.057573309    -2.911214598
 H       -4.423430260    10.443727586    -5.090589023
 H       -5.254136293    10.903382327    -7.370861842
 H       -6.486097196    14.843155972    -6.105524788
 H       -5.562833935    14.415201986    -3.877682009
 H       -6.894741821    14.497648143    -9.708173808
 H       -5.762116779    15.065705023    -8.462350807
 H       -7.512898848    14.960523458    -8.094348489
 H       -7.629735551    11.192444956    -5.161061309
 H       -7.635025065     9.952160267    -6.446512492
 H       -8.561370630     9.701409969    -4.926088702
 H      -11.716103934    11.942978501    -7.363146102
 H      -13.392727058    10.555217915    -8.489452320
 H      -11.123275859     7.022445236    -7.546450838
 H       -9.414396893     8.390277447    -6.468844575
 H      -14.229263600     8.515825900    -9.185198245
 H      -12.571543835     5.972734631    -8.456909949
 H      -12.164529078     5.980785186   -11.287837050
 H      -11.118804548     4.749589661   -13.104595195
 H      -14.309724692     1.861588255   -13.042079444
 H      -15.389724175     3.058300428   -11.219362889
 H      -12.598831192     1.563556843   -14.597491508
 H      -10.322560474     3.662614698   -14.615110741
 H      -11.802129275     0.474531945   -16.104111767
 H      -10.759312185    -0.757164132   -17.916713213
 H       -7.541969980     2.171499119   -18.004732320
 H       -8.612560990     3.363480913   -16.175587183
 H       -7.399736581    12.070190717    -9.766498817
 H       -7.243639649    11.125056847    -8.266298962
 H       -9.165064867    13.525300022    -8.651875296
 H       -9.614609240    11.833910913    -8.827753468
 H       -8.413043250    12.930748631    -6.191808799
 H      -10.146757513    13.046925037    -6.552607397
 H        2.267714453    -1.027873580     0.071942595
 H        2.270464230     0.571104957     0.856721049
 H        2.278559470     0.447402630    -0.922788130
 H       -9.099281317    -1.683797312   -21.408796977
 H      -10.300682091    -0.463938793   -20.916316585
 H      -10.094602708    -1.952903581   -19.958454609
 H       -7.945190844     1.659177343   -20.976135811
 H       -6.462464220     1.331136951   -20.042290216
 H       -6.861658307     0.329597184   -21.458110866
 H       -7.638996378    -2.301702226   -18.112396320
 H       -6.585552375    -2.174802300   -19.545115684
 H       -6.317926120    -1.109329064   -18.140781974
 H      -14.587206053     3.664603344    -8.084420075
 H      -15.783205680     4.889078481    -7.590426859
 H      -16.175602868     3.734908687    -8.889981745
 H      -15.652674986     7.311576408   -11.175894141
 H      -16.800695084     5.973756453   -10.934908273
 H      -16.554638964     7.175186682    -9.641328277
 H       -6.040053947    12.076145425     0.689852258
 H       -4.838288844    12.389088801     1.970743456
 H       -5.519245631    13.742674595     1.032771411
 H       -1.627043569    13.735302997    -0.628333734
 H       -2.805124724    14.764274329     0.220450819
 H       -1.949300932    13.475909514     1.106307562
 H       -0.282781454    -0.354351825    -2.450977009
 H       -0.279810132    -1.909115829    -1.578813750
 H       -1.733730802    -0.877406136    -1.562905534
 H       -0.290034528    -0.366943763     2.447255077
 H       -1.706085360    -0.967925687     1.548824567
 H       -0.201734897    -1.919510987     1.576792000

