139   

Si        0.000000000     0.000000000     0.000000000
 C        1.869417422     0.000000000     0.000000000
 C       -0.646359819     1.729383545     0.000000000
 C        0.166189025     2.805651426    -0.369932694
 C       -0.334278567     4.107469306    -0.365696481
 C       -1.658154496     4.362855925     0.001477548
 C       -2.472434146     3.282704264     0.367431160
 C       -1.975101685     1.982157685     0.365917243
 C       -2.224101369     5.707907666     0.020457576
 C       -1.550673666     6.824248605    -0.305458500
 C       -2.113393418     8.170573802    -0.287585192
 C       -3.437141973     8.430032857     0.079096084
 C       -3.933314490     9.733215559     0.081896180
 C       -3.110697750    10.806466404    -0.275536961
 C       -1.783942651    10.550703883    -0.643009114
 C       -1.293894768     9.247206204    -0.651544053
Si       -3.759309257    12.533990290    -0.274490983
 C       -2.339977983    13.679475841    -0.103559151
 C       -1.991556900    14.624108569    -0.987036430
 C       -0.848923938    15.523856767    -0.818146427
 C       -0.580441403    16.475983891    -1.811698216
 C        0.488822423    17.350013904    -1.698367047
 C        1.307020080    17.335010820    -0.547950533
 C        1.037036017    16.379450857     0.450198239
 C       -0.009287238    15.478906529     0.298290090
 N        2.390720478    18.228022373    -0.444259458
 C        2.228262138    19.550102486    -1.076596521
 C        3.064645461    18.307269788     0.863430735
 C        1.067820415    20.362576646    -0.480858183
 C        0.947327153    21.726938252    -1.178101567
 N       -0.169037625    22.542012755    -0.661486160
 C       -0.126913280    22.854606347     0.713246121
 C        1.110319931    23.170955564     1.314327733
 C        1.176583574    23.481268915     2.662861772
 C        0.018789192    23.538110849     3.452041842
 C       -1.208708993    23.254321722     2.847774209
 C       -1.290234998    22.923471596     1.500918326
 C       -1.471111630    22.120143682    -1.206104282
 C        0.143803833    23.870760590     4.872627901
 C       -0.892690332    23.952666131     5.716995487
Si       -0.786405084    24.364703706     7.499113956
 C       -1.471576276    22.941037718     8.452642014
 C       -1.523362170    21.667166978     7.876964683
 C       -2.039871252    20.587623548     8.592257282
 C       -2.508020813    20.754874713     9.898532258
 C       -2.450600212    22.031228775    10.474187395
 C       -1.938054851    23.112503175     9.761479629
 C       -3.056367692    19.653605268    10.683653081
 C       -3.166487613    18.386794756    10.248830809
 C       -3.714205903    17.283400378    11.031132261
 C       -4.186533302    17.445744086    12.336894029
 C       -4.701910947    16.362996584    13.047786406
 C       -4.750485913    15.089090007    12.469712760
 C       -4.277632058    14.924055242    11.162674157
 C       -3.768590727    16.009024506    10.452373965
Si       -5.436455041    13.666713304    13.426241280
 C       -4.792161599    13.729024521    15.180104338
 C       -7.300228856    13.801800613    13.426343530
 C       -4.925628505    12.045902653    12.647646707
 C        0.976632825    24.653258642     8.040955401
 C       -1.808036950    25.899041781     7.801733750
 C       -4.692237272    12.818628523    -1.866441660
 C       -4.894039411    12.797682628     1.186259177
 C       -0.628538911    -0.864109224    -1.532785739
 C       -0.605666951    -0.890903463     1.527926356
 H        1.209517190     2.669393295    -0.667740724
 H        0.320789441     4.927760905    -0.654222445
 H       -3.506808114     3.459368720     0.656739630
 H       -2.657603817     1.180606586     0.661720802
 H       -3.272599927     5.759006139     0.328109171
 H       -0.502055343     6.771769087    -0.613585442
 H       -4.094460880     7.611376441     0.365925928
 H       -4.976873325     9.874157044     0.375978508
 H       -1.097014684    11.353494469    -0.931962898
 H       -0.260629381     9.066504818    -0.942660027
 H       -1.766014844    13.531473949     0.825833127
 H       -2.544213384    14.797276428    -1.919803496
 H       -1.214754958    16.524425464    -2.697373297
 H        0.689731983    18.049368594    -2.504631519
 H        1.644084903    16.327027027     1.348639423
 H       -0.184004961    14.736987851     1.079698815
 H        3.899884476    19.025938105     0.811881350
 H        3.506669144    17.323610524     1.104818014
 H        2.395661279    18.611779560     1.685308780
 H       -1.383925227    21.964324229    -2.294852350
 H       -2.207232911    22.931080166    -1.059911842
 H       -1.862063963    21.194362068    -0.752894082
 H        2.020785616    23.169775534     0.721811252
 H        2.146077498    23.700252391     3.111322010
 H       -2.126368915    23.289947914     3.437902773
 H       -2.264651821    22.704469516     1.075406749
 H        1.180789709    24.048554235     5.186162354
 H       -1.923569393    23.772091782     5.370487989
 H       -1.169824054    21.475617076     6.857995115
 H       -2.073783032    19.606885260     8.120860987
 H       -2.810470716    22.182557403    11.490041000
 H       -1.920031068    24.084805826    10.261004217
 H       -3.387001831    19.928585164    11.689471409
 H       -2.835625370    18.112748430     9.242444814
 H       -4.155578931    18.425377362    12.810626921
 H       -5.058372516    16.552917438    14.064118110
 H       -4.289772350    13.952987513    10.660153835
 H       -3.407664266    15.860304446     9.436176756
 H        3.186884321    20.107415674    -0.975355175
 H        2.083341687    19.400942733    -2.170946378
 H        0.119591120    19.797753435    -0.574164789
 H        1.216205933    20.503158574     0.607770038
 H        1.889228550    22.310171116    -1.063253245
 H        0.807649639    21.594530322    -2.274454582
 H        2.267641895    -1.027573249     0.076858155
 H        2.271210409     0.575216927     0.853598706
 H        2.278096726     0.442710836    -0.925380869
 H       -5.126604936    12.851389327    15.761072960
 H       -5.140668171    14.631285495    15.712307584
 H       -3.687087913    13.738747794    15.199021084
 H       -7.636000788    14.748645345    13.885738494
 H       -7.704256790    13.774072632    12.398176174
 H       -7.764176361    12.973378053    13.989818902
 H       -3.826429924    11.968423789    12.565562107
 H       -5.273613134    11.187365379    13.249472798
 H       -5.346900207    11.928874377    11.633674021
 H        1.600138363    23.755880342     7.874527401
 H        1.436921248    25.490926528     7.487457098
 H        1.031255011    24.894809004     9.117640759
 H       -2.874399979    25.725317664     7.569397088
 H       -1.745707713    26.228884572     8.853322448
 H       -1.463736949    26.737285533     7.168868411
 H       -4.039578350    12.673007029    -2.746603356
 H       -5.538390377    12.115344532    -1.966613683
 H       -5.102259972    13.842834870    -1.916348548
 H       -4.387712455    12.555000239     2.138098815
 H       -5.226456830    13.849949174     1.247142281
 H       -5.797614509    12.167246259     1.119293545
 H       -0.282868562    -0.355140143    -2.450762536
 H       -0.277235809    -1.909870994    -1.578465643
 H       -1.732731020    -0.880326549    -1.562263110
 H       -0.291732416    -0.364084816     2.447467103
 H       -1.706864407    -0.966110441     1.548626350
 H       -0.202310817    -1.917727053     1.579102682

