139   

Si        0.000000000     0.000000000     0.000000000
 C        1.869213149     0.000000000     0.000000000
 C       -0.653307317     1.726429267     0.000000000
 C        0.170740805     2.818208591    -0.289302304
 C       -0.341709144     4.115612090    -0.284276538
 C       -1.687960535     4.350888667     0.006408317
 C       -2.513431557     3.255009953     0.292773518
 C       -2.004885755     1.959042134     0.288213998
 C       -2.268402402     5.689565158     0.023544886
 C       -1.590504925     6.821545188    -0.232177012
 C       -2.173737639     8.159208195    -0.214306560
 C       -1.351940320     9.257217335    -0.500328060
 C       -1.864967063    10.552600269    -0.494992243
 C       -3.216049553    10.776979947    -0.210775099
 C       -4.040085064     9.681889079     0.074936412
 C       -3.521969247     8.388271956     0.076086757
Si       -3.933158471    12.478753234    -0.194084235
 C       -5.662203429    12.310351927    -0.776968916
 C       -6.756791304    12.645036311    -0.083083480
 C       -8.123217338    12.492376397    -0.590874834
 C       -9.193013585    12.879145764     0.231003075
 C      -10.503590250    12.755604206    -0.200928339
 C      -10.773451200    12.211660539    -1.467924391
 C       -9.714903638    11.820329889    -2.293896738
 C       -8.402143637    11.971967109    -1.856181502
 N      -12.155935044    12.120470021    -1.834651581
 C      -12.814620969    10.965867070    -1.183504260
 C      -12.413793113    12.185725608    -3.284018355
 C      -12.371732783     9.589999465    -1.721244172
 C      -12.567095513     8.470564127    -0.680681907
 N      -11.331259848     8.048118977     0.007958827
 C      -10.743006222     8.991810542     0.879576152
 C      -11.564246191     9.649916532     1.818733020
 C      -11.022136446    10.581332433     2.689368009
 C       -9.644051919    10.839999681     2.707161881
 C       -8.827713197    10.156672389     1.801466981
 C       -9.360157772     9.241630423     0.901852615
 C      -10.412504806     7.316987631    -0.881454373
 C       -9.122138055    11.834334686     3.646977673
 C       -7.826725663    12.158921722     3.748476238
Si       -7.118355259    13.392870651     4.903694268
 C       -6.308428876    14.660674108     3.831632299
 C       -6.960952718    15.085987188     2.666489565
 C       -6.376889524    16.039589536     1.838209141
 C       -5.131028345    16.597219756     2.156680534
 C       -4.485480109    16.175083748     3.322265932
 C       -5.068042034    15.217719327     4.153575188
 C       -4.561097962    17.593143518     1.256082509
 C       -3.378449879    18.204156405     1.439576122
 C       -2.811625354    19.200191124     0.536077338
 C       -3.463284071    19.617800646    -0.628525204
 C       -2.886126392    20.572201242    -1.464192391
 C       -1.639567266    21.129986198    -1.154360466
 C       -0.985244298    20.713071772     0.010005178
 C       -1.565585600    19.759982279     0.844505767
Si       -0.901512680    22.392099309    -2.281570410
 C       -0.782645529    21.668428747    -4.000822588
 C       -2.008988718    23.897310252    -2.296325051
 C        0.805892207    22.884376016    -1.701919988
 C       -8.424189431    14.220166612     5.946601213
 C       -5.867423695    12.533585056     5.989432988
 C       -3.842504952    13.112560959     1.554807031
 C       -3.022259477    13.634748466    -1.338987042
 C       -0.626119450    -0.867769158    -1.532094921
 C       -0.606433778    -0.887753088     1.529612843
 H        1.232006253     2.697726849    -0.523368892
 H        0.321940912     4.948340640    -0.510627763
 H       -3.565274850     3.416207058     0.521817501
 H       -2.697412319     1.144670783     0.518696550
 H       -3.334325486     5.722218526     0.267777756
 H       -0.524531071     6.789923052    -0.475912779
 H       -0.299627601     9.099817268    -0.728654060
 H       -1.177073261    11.370995523    -0.723651390
 H       -5.105673545     9.800064138     0.301260319
 H       -4.181047301     7.552342596     0.303920309
 H       -5.739628712    11.892699409    -1.794313469
 H       -6.712460544    13.070168129     0.929960133
 H       -8.996027944    13.276617070     1.228571493
 H      -11.330147792    13.070631265     0.434019925
 H       -9.907216173    11.400635043    -3.276361416
 H       -7.587789369    11.667326992    -2.514108285
 H      -13.500629546    12.299912923    -3.439079203
 H      -12.071498457    11.311073051    -3.856042345
 H      -11.926423018    13.087225113    -3.695412375
 H      -10.973279282     6.537504228    -1.424619538
 H       -9.652560942     6.797450851    -0.269642853
 H       -9.899562671     7.954276257    -1.619865888
 H      -12.627362610     9.429004107     1.859302121
 H      -11.678737829    11.103531849     3.385582441
 H       -7.751839107    10.346921593     1.783889578
 H       -8.692919804     8.751251391     0.199240313
 H       -9.901136280    12.293446616     4.269040582
 H       -7.067098150    11.672192299     3.112880901
 H       -7.940161694    14.692160347     2.372745541
 H       -6.894824382    16.352269157     0.932249112
 H       -3.518321035    16.594371038     3.592953344
 H       -4.516130611    14.926261836     5.050952602
 H       -5.177726150    17.824625838     0.381946975
 H       -2.760194598    17.973240474     2.311922918
 H       -4.432870183    19.198356037    -0.892094064
 H       -3.444340195    20.860000182    -2.359767962
 H       -0.010592586    21.113521314     0.301935712
 H       -1.040809440    19.449292037     1.746140737
 H      -12.605389994    11.035587508    -0.089691165
 H      -13.912018421    11.094546643    -1.304122200
 H      -12.929467423     9.349961561    -2.643050420
 H      -11.306432619     9.637824082    -2.024040720
 H      -13.315260321     8.770430671     0.086406741
 H      -12.997265853     7.567239795    -1.171854670
 H        2.266972539    -1.029127106     0.056128823
 H        2.271517568     0.557650366     0.864906922
 H        2.277606469     0.461028480    -0.916583077
 H       -0.330895753    22.385387887    -4.708769062
 H       -1.776438934    21.391909925    -4.394930697
 H       -0.159417612    20.755671332    -4.007639046
 H       -3.031187215    23.645032593    -2.630011310
 H       -2.092634825    24.342217744    -1.288018722
 H       -1.619191724    24.677363961    -2.973655416
 H        1.486531969    22.015096729    -1.665377632
 H        1.257665656    23.628324716    -2.382507117
 H        0.778751653    23.334342352    -0.693625025
 H       -9.178958554    14.732476382     5.322828400
 H       -8.954485933    13.489916381     6.583578800
 H       -7.981289228    14.981141390     6.614445263
 H       -5.040726770    12.103025519     5.395187325
 H       -5.425282316    13.225291594     6.727588706
 H       -6.333080324    11.704156163     6.553013168
 H       -4.300749390    12.404944398     2.269117222
 H       -2.797142994    13.270726739     1.873409470
 H       -4.369069668    14.081844669     1.661393480
 H       -2.982603705    13.243931222    -2.370851425
 H       -3.517881130    14.623524597    -1.376315042
 H       -1.983618469    13.803186684    -1.003455888
 H       -0.278471859    -0.360710106    -2.450330053
 H       -0.274647539    -1.913557677    -1.574669776
 H       -1.730152834    -0.884129812    -1.563380550
 H       -0.286918592    -0.362450311     2.448115628
 H       -1.708075245    -0.955372506     1.553400038
 H       -0.209301020    -1.916963582     1.579567977

