139   

Si        0.000000000     0.000000000     0.000000000
 C        1.869290291     0.000000000     0.000000000
 C       -0.616088837     1.739697665     0.000000000
 C       -0.182799905     2.638665250    -0.982033203
 C       -0.642229007     3.955130691    -0.990888929
 C       -1.552346291     4.400756764    -0.027859846
 C       -1.985663272     3.499019250     0.952354747
 C       -1.521282955     2.186067434     0.969413508
 C       -2.063983322     5.766356032     0.007838291
 C       -1.729928342     6.736471858    -0.859755823
 C       -2.250740284     8.099189724    -0.811005407
 C       -3.160386821     8.521933148     0.161798187
 C       -3.634179764     9.833701496     0.173460933
 C       -3.206357743    10.751610995    -0.789684878
 C       -2.290864887    10.332847505    -1.764366447
 C       -1.817072321     9.023765783    -1.770810872
Si       -3.815388985    12.493692860    -0.800015353
 C       -2.345273981    13.535997404    -0.477161616
 C       -1.861763266    14.479087413    -1.295138543
 C       -0.679263980    15.289615079    -0.992558797
 C       -0.259647493    16.251655439    -1.923484817
 C        0.853145913    17.041297543    -1.680144985
 C        1.586301537    16.876473481    -0.490480918
 C        1.186919712    15.901010543     0.431160345
 C        0.076143609    15.106401595     0.167618874
 N        2.719915313    17.721300731    -0.303306690
 C        2.375890321    19.147016010    -0.119029680
 C        3.702709335    17.240487100     0.683873821
 C        1.553352762    19.464910911     1.145123745
 C        0.044676331    19.518212638     0.838663719
 N       -0.862166660    19.448512133     2.003425075
 C       -1.173610144    18.093824713     2.386983812
 C       -2.499575691    17.694008439     2.171245229
 C       -2.896108095    16.407209588     2.508741299
 C       -1.973577769    15.483795241     3.021527677
 C       -0.654368843    15.894785253     3.235368575
 C       -0.258671118    17.196979218     2.945835529
 C       -0.426445326    20.262990187     3.153006380
 C       -2.441134701    14.136177304     3.363254641
 C       -1.650353147    13.176198229     3.858622275
Si       -2.167835865    11.474700510     4.306417326
 C       -1.171854308    10.326842268     3.262777313
 C       -0.603188811    10.797110493     2.072042315
 C        0.152286961     9.948200827     1.268912889
 C        0.343491604     8.607845809     1.628091324
 C       -0.232782766     8.139302103     2.812068145
 C       -0.984934460     8.989258806     3.622628524
 C        1.143724219     7.760991724     0.751222332
 C        1.413541830     6.463890742     0.973839657
 C        2.216078054     5.628414025     0.087368236
 C        2.784348068     6.115457829    -1.092976238
 C        3.545404620     5.283933357    -1.913530255
 C        3.770925368     3.949880962    -1.560359354
 C        3.207630657     3.461230188    -0.374688232
 C        2.437289958     4.290025287     0.436585754
Si        4.776004340     2.838615419    -2.636817353
 C        5.896187621     3.837412264    -3.749933837
 C        5.817072949     1.706995687    -1.573443948
 C        3.595661490     1.823932431    -3.673774807
 C       -1.778033453    11.213989894     6.114532577
 C       -3.981998002    11.165515642     4.001744915
 C       -4.585213665    12.858751363    -2.462116893
 C       -5.077473772    12.813549116     0.538642320
 C       -0.627315928    -0.843532444    -1.545805840
 C       -0.610179464    -0.922113204     1.507362126
 H        0.530128778     2.350926441    -1.760638609
 H       -0.277526763     4.639191875    -1.756069480
 H       -2.692263012     3.825840120     1.712605403
 H       -1.892066166     1.531280453     1.761825910
 H       -2.767552741     5.968179725     0.821116049
 H       -1.021960071     6.541996939    -1.670503556
 H       -3.503015907     7.828536771     0.927616201
 H       -4.342021091    10.104020697     0.961182873
 H       -1.915331992    11.010577783    -2.536652556
 H       -1.102702072     8.715809167    -2.531913106
 H       -1.868042986    13.328573830     0.496849860
 H       -2.317291476    14.720422719    -2.263263352
 H       -0.818859817    16.387776021    -2.848741201
 H        1.176474390    17.778031369    -2.412269512
 H        1.732753316    15.757073691     1.359063568
 H       -0.217471415    14.349353067     0.898361780
 H        4.625908045    17.836403835     0.577946858
 H        3.965228066    16.192366004     0.454773000
 H        3.370291847    17.299405716     1.731399234
 H       -0.273190949    21.301856150     2.817519228
 H        0.490786052    19.910924699     3.647078553
 H       -1.239084504    20.271123476     3.901466559
 H       -3.205922658    18.403974413     1.741320434
 H       -3.931273071    16.108063798     2.349795413
 H        0.075888785    15.198383571     3.647595260
 H        0.762864973    17.508863744     3.143195388
 H       -3.511191297    13.986469999     3.170731393
 H       -0.577836584    13.361638146     4.040466281
 H       -0.726965683    11.831534693     1.734217656
 H        0.586157336    10.330540125     0.345861246
 H       -0.101101759     7.100026756     3.107740478
 H       -1.411087181     8.568496132     4.536317672
 H        1.528982964     8.265480188    -0.140263520
 H        1.022994923     5.953713261     1.858701304
 H        2.631815961     7.153105993    -1.384777083
 H        3.957379737     5.719982550    -2.827107118
 H        3.352736260     2.428532309    -0.045295416
 H        1.996852587     3.888531681     1.348189676
 H        3.331663289    19.718114283    -0.102854626
 H        1.835397342    19.487804237    -1.030847633
 H        1.755092802    18.708765097     1.925634989
 H        1.882465640    20.429076679     1.572215249
 H       -0.198550546    20.471502080     0.314922058
 H       -0.231299036    18.695992695     0.136380630
 H        2.268921082    -1.028921013     0.025310876
 H        2.269686382     0.534255190     0.880341399
 H        2.270263427     0.490061109    -0.904998025
 H        6.550517300     3.181131284    -4.350828965
 H        6.549679890     4.508328747    -3.163334432
 H        5.321733983     4.463357330    -4.454945676
 H        6.471377753     2.286726320    -0.897148423
 H        5.195054046     1.044911501    -0.946072046
 H        6.466956805     1.063084851    -2.191688270
 H        2.962197442     2.470860360    -4.307057727
 H        4.140102014     1.133798057    -4.341431569
 H        2.921166372     1.216853470    -3.043672785
 H       -0.697886484    11.331320244     6.315901699
 H       -2.313728492    11.942405784     6.749364702
 H       -2.069282421    10.203530476     6.450263407
 H       -4.230799347    11.229920201     2.926728567
 H       -4.273538698    10.155550280     4.342661680
 H       -4.613483009    11.893275802     4.540713526
 H       -3.868988606    12.696833915    -3.287199695
 H       -5.455051612    12.204087664    -2.651112190
 H       -4.936736950    13.903697045    -2.523965117
 H       -4.645632572    12.691874479     1.547906291
 H       -5.467138191    13.845670390     0.470810634
 H       -5.938612228    12.128209490     0.452265346
 H       -0.282546104    -0.324601725    -2.457955563
 H       -0.281254468    -1.889926553    -1.604108302
 H       -1.731977669    -0.855933799    -1.572995882
 H       -0.277971745    -0.435798440     2.441657893
 H       -1.712944195    -0.976891034     1.530954804
 H       -0.229929610    -1.958952626     1.521367568

