139   

Si        0.000000000     0.000000000     0.000000000
 C        1.869788500     0.000000000     0.000000000
 C       -0.642404185     1.730272039     0.000000000
 C        0.137893885     2.787560745    -0.478797946
 C       -0.355233153     4.091812847    -0.475167582
 C       -1.639910485     4.369906056    -0.000962798
 C       -2.422219115     3.308520776     0.473461819
 C       -1.932048848     2.005103329     0.473142904
 C       -2.196212310     5.718686575     0.021390645
 C       -1.550924531     6.818921721    -0.401513444
 C       -2.105121797     8.168471192    -0.380119263
 C       -1.314202599     9.223385309    -0.854724094
 C       -1.797785771    10.527641451    -0.854924966
 C       -3.087845423    10.808986797    -0.385015604
 C       -3.878759985     9.759702663     0.088783939
 C       -3.388971519     8.452851796     0.092778188
Si       -3.665940144    12.557694175    -0.413139013
 C       -5.403533803    12.718432312     0.140055971
 C       -5.785474896    13.447898760     1.196562197
 C       -7.171251251    13.582893874     1.646911391
 C       -7.437086518    14.379714614     2.771636643
 C       -8.729044404    14.542002130     3.240565475
 C       -9.808789957    13.936793090     2.564180350
 C       -9.547076111    13.139509802     1.439245299
 C       -8.238895554    12.954210236     1.004566981
 N      -11.110200304    14.132673693     3.083269037
 C      -11.479618303    15.543098349     3.336865945
 C      -12.191663616    13.353263265     2.458886885
 C      -10.973043157    16.568022360     2.307039058
 C      -11.403945465    16.223687744     0.870744832
 N      -10.991157789    17.228841876    -0.123540097
 C       -9.598774481    17.394274782    -0.310986536
 C       -8.789650241    16.254055709    -0.493434072
 C       -7.422029997    16.383844637    -0.679491486
 C       -6.813070931    17.647599116    -0.718194285
 C       -7.622610797    18.775162677    -0.560057974
 C       -8.994513340    18.661341361    -0.369004822
 C      -11.798272920    18.458335117    -0.054908011
 C       -5.363717655    17.747508663    -0.916748659
 C       -4.704876896    18.913536137    -0.965988049
Si       -2.908612892    19.164429603    -1.207416268
 C       -2.022072914    17.558355746    -1.389893277
 C       -1.237993904    17.024935121    -0.363488380
 C       -0.580109142    15.806539470    -0.534464292
 C       -0.670401801    15.108881341    -1.741695107
 C       -1.450516588    15.649791816    -2.772808415
 C       -2.121699118    16.856375724    -2.599328380
 C       -0.001039723    13.832310373    -1.968189081
 C        0.774444184    13.202231872    -1.069546479
 C        1.440989307    11.925248298    -1.302999543
 C        1.330141307    11.227180756    -2.509405976
 C        1.984079226    10.009556921    -2.690290250
 C        2.755099019     9.455592086    -1.661772399
 C        2.859979760    10.148518982    -0.450047289
 C        2.208192119    11.366931627    -0.273041310
Si        3.617091300     7.842082410    -1.912165832
 C        4.285690951     7.746599815    -3.654229745
 C        5.027619317     7.657831567    -0.700715853
 C        2.368989719     6.479439130    -1.629799871
 C       -2.649460841    20.187149392    -2.750903480
 C       -2.252211693    20.100997050     0.272299222
 C       -2.546892176    13.539460022     0.713055055
 C       -3.596298549    13.195612916    -2.167458622
 C       -0.630227054    -0.861510626    -1.533836727
 C       -0.603614537    -0.896758719     1.525598840
 H        1.149809584     2.633677471    -0.863092820
 H        0.274185143     4.897354905    -0.851436321
 H       -3.426019701     3.501979520     0.847382626
 H       -2.588638035     1.219186399     0.856325855
 H       -3.212720748     5.787794005     0.419081145
 H       -0.532849311     6.751524522    -0.798851047
 H       -0.306271280     9.028638960    -1.222648165
 H       -1.129448313    11.310626243    -1.231637964
 H       -4.889557558     9.924941297     0.472127045
 H       -4.021237421     7.651646153     0.470225661
 H       -6.133158675    12.165783105    -0.470503765
 H       -5.075918595    14.011682738     1.818467467
 H       -6.614610835    14.874883857     3.289240752
 H       -8.915020643    15.134255195     4.132900556
 H      -10.354152208    12.658879491     0.896081924
 H       -8.056032660    12.319500484     0.136289158
 H      -13.102140329    13.445222742     3.076514717
 H      -11.917773177    12.282528609     2.460391036
 H      -12.435322908    13.656153888     1.428999147
 H      -12.868464035    18.190626004    -0.035663921
 H      -11.634165829    19.051531473    -0.972870813
 H      -11.581804166    19.089202518     0.821525419
 H       -9.235717597    15.261261983    -0.473757533
 H       -6.812407447    15.483981995    -0.793672827
 H       -7.179524821    19.771489599    -0.585678029
 H       -9.581337174    19.565198410    -0.244536558
 H       -4.865231187    16.774141006    -1.018777258
 H       -5.246203038    19.868840011    -0.855852352
 H       -1.119926871    17.531200540     0.598399033
 H        0.018794453    15.409288877     0.283276444
 H       -1.533119272    15.123693644    -3.722291694
 H       -2.722416874    17.224833626    -3.436682970
 H       -0.168642137    13.398261657    -2.958998164
 H        0.952446687    13.637676653    -0.081828067
 H        0.735172276    11.634909621    -3.324990810
 H        1.865429369     9.514324570    -3.658224787
 H        3.445225702     9.763338646     0.389588476
 H        2.298739268    11.888074515     0.678443723
 H      -12.584557233    15.618351449     3.431598660
 H      -11.067205695    15.802963730     4.342220979
 H      -11.338318380    17.573322948     2.586211123
 H       -9.865370592    16.636751962     2.346049798
 H      -10.972119557    15.240927674     0.566613596
 H      -12.508621212    16.109060337     0.811641644
 H        2.267935984    -1.027338933     0.078240614
 H        2.269968197     0.576490071     0.853560168
 H        2.279200203     0.442331887    -0.924927263
 H        4.849047846     6.810662170    -3.816717743
 H        4.972656191     8.586227665    -3.865035161
 H        3.479829414     7.781097881    -4.408050720
 H        5.744275464     8.494105132    -0.788014914
 H        4.671153549     7.630285362     0.344238138
 H        5.588729813     6.723439471    -0.880467957
 H        1.515802778     6.566827009    -2.326957531
 H        2.823379416     5.483836500    -1.778462328
 H        1.971773272     6.517181299    -0.598028921
 H       -3.097625689    19.705908782    -3.638412724
 H       -3.107026034    21.187300277    -2.652208227
 H       -1.573748409    20.330909123    -2.957414183
 H       -2.456717594    19.562714700     1.215104042
 H       -1.160665511    20.252142426     0.199285706
 H       -2.720444471    21.097779467     0.355607558
 H       -2.658242176    13.224027055     1.765385321
 H       -1.486308717    13.394944099     0.436355127
 H       -2.761336342    14.622519798     0.653433741
 H       -4.315832578    12.668289385    -2.817637312
 H       -3.832075208    14.275520803    -2.208054271
 H       -2.590109750    13.058688769    -2.601158886
 H       -0.286027200    -0.350932528    -2.451263042
 H       -0.279630481    -1.907312600    -1.581598147
 H       -1.734588134    -0.876895227    -1.561305732
 H       -0.301186245    -0.365204343     2.446211730
 H       -1.703859031    -0.986235514     1.539803962
 H       -0.187868202    -1.918452303     1.579726385

