139   

Si        0.000000000     0.000000000     0.000000000
 C        1.869438479     0.000000000     0.000000000
 C       -0.639010552     1.731597893     0.000000000
 C        0.125912930     2.778470900    -0.524826576
 C       -0.361762853     4.085010470    -0.522308206
 C       -1.625246936     4.373924762    -0.000554023
 C       -2.392279784     3.323482380     0.521392716
 C       -1.907297063     2.018530050     0.521000979
 C       -2.177716386     5.723130934     0.024086138
 C       -1.552471197     6.818554070    -0.440192016
 C       -2.123739290     8.160908966    -0.405933506
 C       -1.382199754     9.232994195    -0.918776857
 C       -1.896656913    10.528145136    -0.902284843
 C       -3.168320597    10.774234220    -0.374797590
 C       -3.911297040     9.703885413     0.136749402
 C       -3.393403333     8.411548887     0.121599317
Si       -3.900375900    12.468185185    -0.326789950
 C       -5.711544435    12.177780781    -0.339167716
 C       -6.572000564    12.562500296     0.611453320
 C       -8.012705934    12.307078826     0.556924022
 C       -8.820601945    12.756709457     1.611267745
 C      -10.188623371    12.539196892     1.605280588
 C      -10.782370692    11.779034842     0.576518004
 C       -9.972838411    11.312585107    -0.471648658
 C       -8.612794200    11.599048595    -0.487518694
 N      -12.184228256    11.581949475     0.610160449
 C      -12.718759082    11.073668151     1.891787311
 C      -12.770170861    10.889052859    -0.550879884
 C      -12.173587643     9.696780761     2.317103737
 C      -11.082114625     9.830710301     3.397868194
 N      -10.323595458     8.589463923     3.642179865
 C       -9.517950790     8.161753216     2.554808796
 C       -8.569405478     9.065446196     2.036055621
 C       -7.759227730     8.696358125     0.975589920
 C       -7.822450087     7.403252309     0.433556891
 C       -8.743974611     6.502503725     0.970172703
 C       -9.584045352     6.868039758     2.017218772
 C      -11.134657134     7.550914094     4.299418978
 C       -6.944678912     7.061112983    -0.688092713
 C       -6.920028067     5.860854905    -1.282341332
Si       -5.843253964     5.381767406    -2.686350071
 C       -4.772330204     6.794396965    -3.189859355
 C       -5.357667161     8.038715989    -3.455379280
 C       -4.571183966     9.122758137    -3.837654258
 C       -3.187926622     8.982650908    -3.984120870
 C       -2.605828540     7.736016024    -3.724783490
 C       -3.387851231     6.653167367    -3.327928935
 C       -2.328123955    10.091867101    -4.382535543
 C       -2.767896931    11.331498198    -4.657338302
 C       -1.915601917    12.445936388    -5.056222392
 C       -0.530155412    12.323652356    -5.192437918
 C        0.246906188    13.415955865    -5.576303963
 C       -0.346431759    14.655421799    -5.838731082
 C       -1.734828094    14.779886909    -5.704167186
 C       -2.508009954    13.688749778    -5.316261311
Si        0.683008201    16.101150422    -6.346912450
 C        2.172030193    15.517205540    -7.314751439
 C       -0.320388872    17.257832704    -7.419389236
 C        1.240948348    16.994471265    -4.803152938
 C       -4.803937470     3.920244891    -2.167445637
 C       -6.925058905     4.907711529    -4.135049734
 C       -3.338055529    13.333008049     1.228067439
 C       -3.419529943    13.467886228    -1.822844657
 C       -0.631866398    -0.858440907    -1.535097009
 C       -0.604562326    -0.898694655     1.523945005
 H        1.121811040     2.614330522    -0.945040346
 H        0.254921186     4.882219542    -0.933276870
 H       -3.378005243     3.528356359     0.937900080
 H       -2.549812655     1.241007886     0.943028591
 H       -3.178140059     5.799410509     0.464490935
 H       -0.554137994     6.752518706    -0.879471254
 H       -0.393576262     9.056440721    -1.336044070
 H       -1.278664251    11.326456426    -1.321120000
 H       -4.910659384     9.838237459     0.565692132
 H       -3.994441572     7.594049954     0.519808811
 H       -6.057770814    11.639598157    -1.237522922
 H       -6.259914296    13.103444102     1.513523800
 H       -8.372545784    13.309885547     2.437111056
 H      -10.806840109    12.956811546     2.395883428
 H      -10.391591139    10.715968487    -1.276513843
 H       -8.008982236    11.241419029    -1.323716378
 H      -13.870356541    10.913241161    -0.469291053
 H      -12.452525059     9.839253245    -0.656228696
 H      -12.506451992    11.437285380    -1.473070729
 H      -11.581845433     7.973660759     5.215704583
 H      -10.476346465     6.722162523     4.616145992
 H      -11.943111484     7.143816258     3.673217077
 H       -8.482225941    10.065150072     2.460362331
 H       -7.054997923     9.425485821     0.567165744
 H       -8.817609886     5.492498287     0.566932209
 H      -10.296932278     6.143493958     2.396763499
 H       -6.286130022     7.889585121    -0.989848295
 H       -7.582842953     5.047996662    -0.946329749
 H       -6.436558617     8.203820123    -3.371414030
 H       -5.044956960    10.085342238    -4.020510965
 H       -1.529962232     7.608807639    -3.826098245
 H       -2.876192847     5.707662609    -3.124159718
 H       -1.263579093     9.849302170    -4.442474771
 H       -3.835027044    11.567171882    -4.600659352
 H       -0.044587170    11.368976230    -4.997912169
 H        1.325334001    13.258825474    -5.665412616
 H       -2.253663371    15.722788424    -5.897399115
 H       -3.586014530    13.805734874    -5.219185905
 H      -12.518168297    11.837313535     2.676406497
 H      -13.827902288    11.032047472     1.800742049
 H      -12.995473029     9.060149218     2.687831869
 H      -11.759172097     9.161234874     1.439868423
 H      -10.354685774    10.626323303     3.111377191
 H      -11.530228861    10.155414335     4.362715275
 H        2.268229390    -1.027553553     0.072495921
 H        2.269359337     0.572253042     0.856747815
 H        2.279211871     0.448083659    -0.922029786
 H        2.768113032    16.370662902    -7.684028146
 H        1.867945662    14.919869200    -8.193427653
 H        2.840387631    14.889421854    -6.700026991
 H       -0.733041235    16.730678608    -8.298644393
 H       -1.168129922    17.698203702    -6.865985131
 H        0.298526179    18.092677263    -7.793763381
 H        1.835328214    16.332699303    -4.147937374
 H        1.866195685    17.870683792    -5.049104401
 H        0.378891173    17.353710660    -4.212813399
 H       -4.080574435     4.198409778    -1.376213264
 H       -5.424866560     3.097524180    -1.772835220
 H       -4.221133126     3.517775388    -3.015175579
 H       -7.569775932     5.748164637    -4.448055418
 H       -6.314489129     4.617501151    -5.008940185
 H       -7.582768238     4.056394047    -3.889309718
 H       -3.606505195    12.755628430     2.131343949
 H       -2.240862809    13.463684783     1.237608473
 H       -3.792410302    14.334892515     1.320875174
 H       -3.670154790    12.943728490    -2.763424918
 H       -3.933774772    14.445263685    -1.838617266
 H       -2.332032109    13.665883284    -1.845143672
 H       -0.286245264    -0.348306573    -2.452122157
 H       -0.283150809    -1.904927304    -1.583320369
 H       -1.736150116    -0.872075394    -1.562646676
 H       -0.304913619    -0.367460801     2.445697174
 H       -1.704502068    -0.991344694     1.535923870
 H       -0.186243218    -1.919470107     1.578035651

