139   

Si        0.000000000     0.000000000     0.000000000
 C        1.869301709     0.000000000     0.000000000
 C       -0.649122249     1.727521527     0.000000000
 C        0.201900414     2.825046771    -0.160056317
 C       -0.306696262     4.123542852    -0.157436192
 C       -1.675850192     4.354101715    -0.000329028
 C       -2.528200436     3.252594741     0.156101371
 C       -2.023334743     1.955047242     0.155263753
 C       -2.250530132     5.695209322     0.008427081
 C       -1.542631992     6.829122900    -0.130393382
 C       -2.116085653     8.170357560    -0.121793314
 C       -3.485773512     8.397883723     0.035518626
 C       -3.994466175     9.695372154     0.038196818
 C       -3.142110774    10.796635517    -0.103931186
 C       -1.769081149    10.571650794    -0.258176991
 C       -1.265011556     9.273244582    -0.269368227
Si       -3.846069295    12.499642120    -0.096336356
 C       -3.884968094    13.257612810     1.566012682
 C       -3.472787119    12.724612940     2.723503150
 C       -3.555112896    13.434675990     4.003385751
 C       -3.101468121    12.806549423     5.173401390
 C       -3.163909825    13.447301945     6.399979086
 C       -3.689469826    14.754805228     6.500390454
 C       -4.167499504    15.374980581     5.332405503
 C       -4.118952849    14.707990332     4.114415367
 N       -3.739667430    15.379425183     7.760483764
 C       -2.553349832    15.235668021     8.628350405
 C       -4.360484505    16.710498900     7.828853432
 C       -1.192546967    15.445913411     7.943963992
 C       -0.822964155    16.919180611     7.675306760
 N       -0.542069825    17.280452590     6.261768945
 C        0.068002090    16.215360681     5.528841934
 C        1.417284211    15.941838546     5.809895155
 C        2.068827484    14.921189228     5.133885544
 C        1.399548477    14.153725115     4.169242421
 C        0.061713508    14.441687426     3.886456946
 C       -0.598121623    15.470473086     4.547794525
 C       -1.685734038    17.909447365     5.578905370
 C        2.132583969    13.086854230     3.483083446
 C        1.591495972    12.296254483     2.547766216
Si        2.471098348    10.953402329     1.667160008
 C        1.572626899     9.382602347     2.033600997
 C        0.339040651     9.398105708     2.692529194
 C       -0.332876150     8.207310308     2.965416493
 C        0.223947933     6.977041482     2.607654634
 C        1.463595678     6.963058721     1.953919773
 C        2.129239549     8.151349261     1.665529949
 C       -0.442526197     5.707599628     2.873090033
 C       -1.629583005     5.581256636     3.489676504
 C       -2.286833684     4.305203359     3.749809441
 C       -1.724988698     3.082182296     3.371545185
 C       -2.383455769     1.883851932     3.637555137
 C       -3.629825408     1.882946726     4.274708503
 C       -4.198973581     3.105696006     4.646094119
 C       -3.534517672     4.302464138     4.385084830
Si       -4.468860744     0.274794721     4.608878487
 C       -3.295591875    -0.835342375     5.550021999
 C       -6.024313867     0.526468878     5.613151886
 C       -4.904626047    -0.505537481     2.965587163
 C        2.381892724    11.288930174    -0.168959970
 C        4.249094100    10.812863934     2.214748446
 C       -2.790949011    13.596710665    -1.186308854
 C       -5.594310380    12.466567725    -0.759119746
 C       -0.632909825    -0.871438263    -1.526529799
 C       -0.606908299    -0.880984554     1.534608192
 H        1.280982461     2.708828925    -0.289180170
 H        0.376039993     4.962506805    -0.282792388
 H       -3.597279509     3.410750025     0.289052277
 H       -2.737320929     1.137006575     0.285909337
 H       -3.335419632     5.726762135     0.144248468
 H       -0.455148757     6.798287652    -0.252868825
 H       -4.168235928     7.558514561     0.156933285
 H       -5.075349791     9.807865682     0.161114256
 H       -1.056782908    11.393615870    -0.371073383
 H       -0.193538122     9.113325118    -0.386166175
 H       -4.310480066    14.276508841     1.538772531
 H       -3.043272154    11.717776421     2.799749592
 H       -2.684631732    11.799006245     5.118386301
 H       -2.816891074    12.935083760     7.293704121
 H       -4.600427678    16.369415800     5.366856187
 H       -4.515792719    15.207624119     3.228777813
 H       -4.490259206    16.998160226     8.886817095
 H       -5.373912543    16.665711553     7.389538017
 H       -3.785552350    17.500790374     7.321190972
 H       -1.942655116    18.841596873     6.109567785
 H       -2.583434760    17.276149801     5.511494607
 H       -1.382459548    18.192622340     4.554766987
 H        1.940422334    16.538446020     6.554187571
 H        3.115214102    14.716543906     5.357254024
 H       -0.484524674    13.858621293     3.141749132
 H       -1.645116358    15.665070857     4.318229527
 H        3.174206046    12.993053159     3.814842399
 H        0.541161618    12.424127713     2.233704307
 H       -0.142014105    10.328869103     3.010922949
 H       -1.301198398     8.245353027     3.462254208
 H        1.913332014     6.013662363     1.670462387
 H        3.090254005     8.079985605     1.150057830
 H        0.098262494     4.822697629     2.521059923
 H       -2.178696606     6.461663252     3.834807294
 H       -0.764895700     3.056239064     2.855441425
 H       -1.889802077     0.959669882     3.323148277
 H       -5.169141640     3.165003730     5.145215321
 H       -3.992895487     5.244273728     4.680409612
 H       -2.655847222    15.919916858     9.498510287
 H       -2.592192118    14.201160003     9.051110978
 H       -0.404437408    14.983758641     8.570143430
 H       -1.166298300    14.856613955     7.002240316
 H       -1.605988983    17.596403694     8.073635176
 H        0.111088313    17.168906853     8.233885175
 H        2.267418124    -1.029770699     0.032348209
 H        2.274443086     0.538116130     0.875565379
 H        2.275877704     0.479652646    -0.907764366
 H       -3.762588864    -1.808009344     5.783291657
 H       -2.992115184    -0.373555009     6.507250740
 H       -2.374876482    -1.036019048     4.974487862
 H       -5.805067750     1.010676343     6.581686853
 H       -6.755173915     1.159276175     5.079383610
 H       -6.519167701    -0.436797244     5.830567477
 H       -4.006593744    -0.666072802     2.343001834
 H       -5.396378224    -1.483944587     3.103514950
 H       -5.595237977     0.137252832     2.390359334
 H        1.336266062    11.361804338    -0.519211101
 H        2.884894067    12.238405652    -0.425731715
 H        2.870094133    10.485308294    -0.747776886
 H        4.319022275    10.585090243     3.294382547
 H        4.778387052    10.008262915     1.674982367
 H        4.802462342    11.751781672     2.034635875
 H       -1.775975905    13.728729922    -0.769861939
 H       -2.685936710    13.166874932    -2.198307170
 H       -3.235390581    14.601154278    -1.296324605
 H       -6.278258708    11.929695260    -0.078092819
 H       -5.994558673    13.487293718    -0.889058285
 H       -5.637709476    11.964368442    -1.742153247
 H       -0.290048725    -0.365085062    -2.447043654
 H       -0.279888135    -1.916342849    -1.570924182
 H       -1.736960265    -0.889593998    -1.554405496
 H       -0.215578277    -0.404419688     2.451762803
 H       -1.709660221    -0.877319409     1.596803953
 H       -0.278242531    -1.935173388     1.544080459

