139   

Si        0.000000000     0.000000000     0.000000000
 C        1.869790818     0.000000000     0.000000000
 C       -0.648445373     1.727334303     0.000000000
 C        0.200158257     2.829295362     0.140386330
 C       -0.314797412     4.125547212     0.137234498
 C       -1.684800286     4.349413648    -0.022122237
 C       -2.533873458     3.243446533    -0.163253513
 C       -2.024738561     1.948064744    -0.145292920
 C       -2.268698136     5.686068477    -0.031929197
 C       -1.567955328     6.823847864     0.108208337
 C       -2.150739632     8.161217240     0.098572874
 C       -1.303103035     9.265759272     0.255364569
 C       -1.814224840    10.560645809     0.252624096
 C       -3.188899960    10.781779299     0.098200284
 C       -4.036752721     9.680815191    -0.055599066
 C       -3.521486786     8.384846225    -0.055124264
Si       -3.854264276    12.501787594     0.096182051
 C       -3.997953812    13.078826916     1.828829456
 C       -5.134267498    13.461733969     2.426887175
 C       -5.221712436    13.919190683     3.814496535
 C       -6.470606213    14.294739429     4.329824921
 C       -6.605393276    14.734339422     5.636370458
 C       -5.478081330    14.868343135     6.474282274
 C       -4.224558066    14.485921894     5.955808775
 C       -4.113242745    13.994424241     4.661206805
 N       -5.608517074    15.315381059     7.805429659
 C       -6.762097884    16.195275726     8.097359573
 C       -4.360886721    15.753812679     8.455279739
 C       -7.077686548    16.295776832     9.600804234
 C       -7.348973862    14.928141599    10.259870656
 N       -8.618283575    14.275037572     9.891847951
 C       -8.620152212    13.602561410     8.644586697
 C       -7.632674031    12.617085579     8.432926043
 C       -7.584506390    11.927499441     7.235672109
 C       -8.548256666    12.147710685     6.236573995
 C       -9.543526203    13.097427774     6.463251823
 C       -9.589225494    13.818554479     7.654083831
 C       -9.804172323    15.090602444    10.195736759
 C       -8.436237044    11.383298177     4.994802882
 C       -9.273505566    11.480410613     3.953694575
Si       -9.085922174    10.496224751     2.418062506
 C       -7.599683942     9.419173756     2.603416652
 C       -6.350662069    10.013459747     2.826703200
 C       -5.209419800     9.228459381     2.970924546
 C       -5.290836542     7.833294635     2.915357603
 C       -6.541118918     7.241725023     2.698039948
 C       -7.683177506     8.024904596     2.539938244
 C       -4.121864355     6.973099993     3.061332221
 C       -2.872564513     7.420595231     3.272665781
 C       -1.699491353     6.566027188     3.419502428
 C       -1.769587763     5.172362751     3.352245615
 C       -0.622074178     4.393069573     3.498176300
 C        0.623661417     4.994625808     3.698183923
 C        0.698640263     6.392808692     3.757606196
 C       -0.449557533     7.167357470     3.619495674
Si        2.158290265     3.990441043     3.894436318
 C        1.751104567     2.166577463     3.888855717
 C        3.296838939     4.369827595     2.459308943
 C        2.983194400     4.439521337     5.510110706
 C      -10.631386174     9.482132870     2.152631036
 C       -8.836869094    11.656891531     0.974154899
 C       -2.672288029    13.636674327    -0.805689798
 C       -5.508045897    12.537837947    -0.772768662
 C       -0.617846508    -0.888528727    -1.522891250
 C       -0.616361331    -0.856338779     1.543736056
 H        1.281589447     2.717278186     0.255540540
 H        0.364819300     4.967278578     0.264000236
 H       -3.604316104     3.396849121    -0.285625565
 H       -2.735831257     1.124976449    -0.253069017
 H       -3.354105504     5.712807792    -0.165314828
 H       -0.483343776     6.796933544     0.250521074
 H       -0.233350122     9.111319076     0.379974762
 H       -1.104448060    11.382440106     0.376550774
 H       -5.119819633     9.789262815    -0.168370901
 H       -4.204181321     7.543779774    -0.166512139
 H       -3.040252137    13.086455344     2.372639933
 H       -6.104066150    13.466873485     1.910773885
 H       -7.360478111    14.219840204     3.702195545
 H       -7.602067688    14.961533235     6.011476668
 H       -3.328755908    14.549365527     6.564105294
 H       -3.132816970    13.680418843     4.300673597
 H       -4.561752728    16.127793244     9.471561327
 H       -3.833139428    16.543460747     7.895806054
 H       -3.689464314    14.882737360     8.569949511
 H       -9.735908560    15.455374176    11.234671030
 H      -10.703636579    14.450981406    10.135757472
 H       -9.943325355    15.956862053     9.530383109
 H       -6.895675904    12.414686178     9.207376571
 H       -6.792429486    11.194807263     7.070542281
 H      -10.302060146    13.283572419     5.703270867
 H      -10.373799942    14.553816968     7.794279307
 H       -7.572220118    10.698419091     4.999200772
 H      -10.134725318    12.161788419     3.966781750
 H       -6.222370619    11.101247600     2.892382449
 H       -4.247171689     9.715546828     3.128517100
 H       -6.625818335     6.158273263     2.651636398
 H       -8.630496448     7.508097845     2.370603752
 H       -4.325915377     5.901429174     2.988057272
 H       -2.668887702     8.494266379     3.339595409
 H       -2.725610973     4.679957572     3.182269292
 H       -0.741447795     3.307481821     3.435832673
 H        1.645439463     6.916804809     3.910883953
 H       -0.374626910     8.251977566     3.667397274
 H       -6.599390038    17.214829025     7.682011214
 H       -7.666067350    15.776968437     7.589543221
 H       -6.249766352    16.794174695    10.139318661
 H       -7.951894507    16.962137354     9.730697501
 H       -6.505478810    14.236845800    10.020563434
 H       -7.354267505    15.045489919    11.367976200
 H        2.267311749    -1.030135732    -0.023268005
 H        2.277351223     0.490961662     0.902071562
 H        2.272912897     0.529254030    -0.881868361
 H        2.661963109     1.549879424     3.980069861
 H        1.243136424     1.873969257     2.951974379
 H        1.083812009     1.899325100     4.727482934
 H        2.818330519     4.127041681     1.493317822
 H        3.569143298     5.439450519     2.433230860
 H        4.232611634     3.788550231     2.524564488
 H        2.315652157     4.237855768     6.367580151
 H        3.908766650     3.858567094     5.665456487
 H        3.250856834     5.509888479     5.546954818
 H      -10.815289118     8.800461741     3.003107640
 H      -11.522672095    10.126231532     2.051641034
 H      -10.561562232     8.867739202     1.238190227
 H       -7.971019160    12.324101166     1.137997612
 H       -8.659155503    11.096507962     0.039167567
 H       -9.723004259    12.295748068     0.816278411
 H       -1.689469135    13.690306597    -0.307027152
 H       -2.502216070    13.291589750    -1.841164232
 H       -3.071597201    14.665309199    -0.858331455
 H       -6.246682327    11.884801183    -0.272696011
 H       -5.925453864    13.559754954    -0.798834095
 H       -5.414041115    12.191487690    -1.817744197
 H       -0.281027149    -0.381270669    -2.445361168
 H       -0.246841750    -1.927782729    -1.560455505
 H       -1.720883721    -0.927457283    -1.552822709
 H       -0.258398304    -0.346031486     2.456273875
 H       -1.719878935    -0.869057926     1.584616829
 H       -0.268953294    -1.903152410     1.588373248

