139   

Si        0.000000000     0.000000000     0.000000000
 C        1.869003405     0.000000000     0.000000000
 C       -0.591211205     1.748885333     0.000000000
 C       -0.205452260     2.607914023     1.036554875
 C       -0.639078188     3.932277080     1.058132686
 C       -1.465961784     4.429641432     0.046197069
 C       -1.850449466     3.569055615    -0.989474529
 C       -1.419215438     2.244254457    -1.013187617
 C       -1.944163415     5.808271266     0.027479388
 C       -1.651293132     6.733094692     0.957581403
 C       -2.131282084     8.111078628     0.935782794
 C       -1.749939745     8.975648868     1.970501974
 C       -2.184050051    10.299214565     1.990921690
 C       -3.015368988    10.786289792     0.976256197
 C       -3.398065893     9.925476351    -0.058639551
 C       -2.957874071     8.603096535    -0.078395347
Si       -3.606416689    12.534634712     0.976416285
 C       -5.196178501    12.546427890     0.064182503
 C       -5.454912613    13.243275316    -1.049374886
 C       -6.745486219    13.218701981    -1.742506892
 C       -6.905544429    13.990220581    -2.904159496
 C       -8.107198548    13.998828848    -3.593265385
 C       -9.182330158    13.205828368    -3.146934685
 C       -9.030176684    12.438640232    -1.984251627
 C       -7.828349928    12.464997839    -1.284265439
 N      -10.389162793    13.261259193    -3.901114931
 C      -10.248225722    12.687338662    -5.260694777
 C      -11.590094681    12.762706733    -3.206285128
 C       -9.702759044    11.247208569    -5.292685396
 C       -8.195563860    11.212764069    -5.621134040
 N       -7.499003370    10.023225675    -5.098818288
 C       -8.024774351     8.771066481    -5.462321794
 C       -8.526813012     8.583552872    -6.768928103
 C       -9.049454721     7.359033911    -7.149482267
 C       -9.049709978     6.264752420    -6.271754587
 C       -8.523752867     6.444356131    -4.989654304
 C       -8.011594490     7.670470403    -4.585045416
 C       -7.047663177    10.182122049    -3.707309156
 C       -9.614911666     4.992919359    -6.725361499
 C       -9.668659463     3.884154987    -5.975561956
Si      -10.366453974     2.275815208    -6.504964745
 C      -11.755313648     1.838633380    -5.370853074
 C      -12.372676526     2.823547101    -4.590411924
 C      -13.420591463     2.491314717    -3.735263949
 C      -13.880629658     1.171225593    -3.644221197
 C      -13.264797269     0.191347452    -4.428472998
 C      -12.214147815     0.519978171    -5.284117653
 C      -14.981397611     0.872745289    -2.733710776
 C      -15.513927908    -0.347474503    -2.551057096
 C      -16.614663216    -0.645670996    -1.640507780
 C      -17.230964398     0.333284019    -0.856058987
 C      -18.280290685     0.003621679     0.001084838
 C      -18.731245407    -1.316980379     0.100124103
 C      -18.114691048    -2.299936184    -0.684174821
 C      -17.072476469    -1.966433657    -1.545684940
Si      -20.120442890    -1.756177769     1.234261920
 C      -20.157285518    -0.582649291     2.689089606
 C      -21.720743092    -1.628427980     0.278181614
 C      -19.899636395    -3.500526392     1.869629500
 C      -11.024911692     2.348574550    -8.250617577
 C       -9.015148805     0.990786666    -6.384536957
 C       -3.924095349    13.127849387     2.717406381
 C       -2.320339326    13.608518054     0.156209692
 C       -0.616862563    -0.910579793    -1.510988394
 C       -0.641918197    -0.847662823     1.536957374
 H        0.440397891     2.276609568     1.854711394
 H       -0.326543418     4.580067248     1.875254077
 H       -2.493937632     3.935592107    -1.787550220
 H       -1.752416160     1.619787349    -1.846621088
 H       -2.583140870     6.058063340    -0.825116606
 H       -1.012252346     6.483937029     1.809703168
 H       -1.106062309     8.611836284     2.769095317
 H       -1.854747445    10.927536087     2.822775869
 H       -4.046525374    10.253750458    -0.878255670
 H       -3.266997491     7.952787200    -0.895351200
 H       -5.965572150    11.905268334     0.526557453
 H       -4.713191780    13.892317946    -1.532143389
 H       -6.077063125    14.599808553    -3.265821116
 H       -8.233045930    14.625648059    -4.473983331
 H       -9.844310630    11.819600246    -1.617813819
 H       -7.735465107    11.873560110    -0.371775742
 H      -12.479856735    13.067346158    -3.785502319
 H      -11.670728538    13.246415093    -2.217144529
 H      -11.620539169    11.670360789    -3.072511124
 H       -6.590043331    11.180538903    -3.574970651
 H       -6.259715972     9.439338576    -3.488970391
 H       -7.857135287    10.084538984    -2.965606505
 H       -8.506348249     9.402257358    -7.482426467
 H       -9.452927259     7.242437283    -8.155704688
 H       -8.511414423     5.609870256    -4.286326353
 H       -7.617787619     7.767148935    -3.577906197
 H       -9.998703599     5.032747290    -7.753471230
 H       -9.271157660     3.873901727    -4.947645301
 H      -12.056149952     3.871532518    -4.622983736
 H      -13.886392035     3.269359076    -3.133212842
 H      -13.603448644    -0.841673519    -4.376390946
 H      -11.771540002    -0.288809532    -5.871797645
 H      -15.366253200     1.736424026    -2.183251240
 H      -15.129325582    -1.211248697    -3.101399223
 H      -16.894977063     1.367354576    -0.909767462
 H      -18.723797338     0.813629717     0.586840761
 H      -18.423905445    -3.348190026    -0.648756210
 H      -16.608170973    -2.744351940    -2.149078902
 H      -11.243941639    12.731374207    -5.755172361
 H       -9.593312970    13.371495128    -5.845692386
 H       -9.885509328    10.747439792    -4.321729094
 H      -10.259613869    10.640831757    -6.030716560
 H       -8.039720100    11.250383682    -6.723054648
 H       -7.687756221    12.118118310    -5.214476215
 H        2.271725300    -1.028090639    -0.005859108
 H        2.275181515     0.512510449     0.889884393
 H        2.268136067     0.519293195    -0.890378389
 H      -20.938017304    -0.871470376     3.415123060
 H      -20.367731799     0.454372177     2.374236905
 H      -19.190758470    -0.579554369     3.225014862
 H      -21.875357802    -0.606430585    -0.112293590
 H      -21.728314411    -2.315005302    -0.587386529
 H      -22.589692780    -1.879214075     0.911491366
 H      -18.921898828    -3.622813302     2.370110610
 H      -20.682867046    -3.760316558     2.603827486
 H      -19.952258224    -4.243412969     1.054734443
 H      -11.827850958     3.102204801    -8.346023259
 H      -10.229786000     2.610271114    -8.971170231
 H      -11.449260084     1.376817369    -8.560312351
 H       -8.651397567     0.886067870    -5.346280269
 H       -9.365723941    -0.001688619    -6.716438071
 H       -8.148463144     1.265715448    -7.012843164
 H       -4.622592752    12.458310375     3.251499853
 H       -2.991649853    13.175363912     3.307101630
 H       -4.369375679    14.139673717     2.719159911
 H       -2.119217608    13.277785603    -0.879271353
 H       -2.640771934    14.664873484     0.116329504
 H       -1.360403752    13.572362246     0.702839830
 H       -0.263283543    -0.435017560    -2.443283327
 H       -0.260800653    -1.956397015    -1.518955571
 H       -1.720645584    -0.938417519    -1.545057106
 H       -0.292023054    -0.342963265     2.454843170
 H       -1.746900354    -0.847363550     1.561897856
 H       -0.307987346    -1.899015756     1.585786087

