139   

Si        0.000000000     0.000000000     0.000000000
 C        1.869100954     0.000000000     0.000000000
 C       -0.662653706     1.722411946     0.000000000
 C        0.161819862     2.826410059    -0.235857173
 C       -0.363608640     4.118889249    -0.230536570
 C       -1.722855056     4.336386373     0.009094791
 C       -2.548402470     3.227901213     0.242544810
 C       -2.027379264     1.937146250     0.236245677
 C       -2.318703688     5.668161205     0.024805191
 C       -1.645996203     6.812670011    -0.184263103
 C       -2.248416592     8.141875002    -0.167132462
 C       -3.610431063     8.347475027     0.073878504
 C       -4.145811379     9.633879468     0.081507562
 C       -3.331133255    10.746117165    -0.164939824
 C       -1.968597431    10.542805442    -0.409072007
 C       -1.434155472     9.255898991    -0.406522626
Si       -4.073678933    12.436910656    -0.147214638
 C       -4.562413965    12.864387852     1.565829787
 C       -4.399152039    12.063576103     2.627021092
 C       -4.790730101    12.407870847     3.995064158
 C       -4.563091086    11.475214940     5.018118755
 C       -4.913809106    11.748658005     6.330108627
 C       -5.477404986    12.996751759     6.670462134
 C       -5.703941664    13.934538474     5.646890247
 C       -5.376771500    13.630307148     4.331039062
 N       -5.823567066    13.245862836     8.010839207
 C       -4.909112682    12.768847083     9.065812256
 C       -6.477042117    14.528394403     8.301257889
 C       -3.403914040    12.950331484     8.790837443
 C       -2.686376474    13.913093012     9.754275651
 N       -2.814419495    15.356141872     9.451242483
 C       -2.744831513    15.688564184     8.079514352
 C       -1.655314074    15.185097242     7.336541887
 C       -1.535548611    15.478090928     5.989591198
 C       -2.487963733    16.275112298     5.336168478
 C       -3.547212775    16.796018639     6.081626978
 C       -3.664464824    16.536160336     7.442998690
 C       -3.842146347    16.035295495    10.253595777
 C       -2.309282334    16.551720340     3.910001677
 C       -3.148845355    17.296811694     3.179506601
Si       -2.940698498    17.652498077     1.396534733
 C       -4.425660059    16.990841051     0.519097636
 C       -5.476024721    16.402292381     1.233021247
 C       -6.592846645    15.905309643     0.566007043
 C       -6.680302874    15.972300104    -0.830137417
 C       -5.627370715    16.555714583    -1.541608051
 C       -4.511708849    17.061256363    -0.875752160
 C       -7.870639792    15.438026741    -1.482982991
 C       -8.085139095    15.445673099    -2.809422512
 C       -9.277029427    14.910337540    -3.458874985
 C      -10.326951023    14.328149078    -2.744296323
 C      -11.448949671    13.828509348    -3.405729225
 C      -11.544282159    13.900197287    -4.798401326
 C      -10.492146513    14.483123819    -5.518205330
 C       -9.373713554    14.980827262    -4.855350173
Si      -13.014933339    13.248628391    -5.704361270
 C      -14.275812220    12.553122336    -4.512834469
 C      -13.789251108    14.646148767    -6.674232384
 C      -12.451820809    11.897182391    -6.865755076
 C       -2.856056663    19.502153904     1.155922688
 C       -1.403489678    16.842207467     0.715889785
 C       -2.855774981    13.700301433    -0.781521983
 C       -5.594174430    12.452243344    -1.231511435
 C       -0.623130288    -0.870726114    -1.531748998
 C       -0.605252440    -0.887433926     1.530540521
 H        1.232811241     2.719397988    -0.428084042
 H        0.299794185     4.961723929    -0.416332910
 H       -3.610521202     3.375284449     0.430024620
 H       -2.720809482     1.112294472     0.422759607
 H       -3.394310404     5.684313382     0.225236414
 H       -0.571062872     6.799094001    -0.385669905
 H       -4.265561075     7.498639232     0.260674685
 H       -5.217375781     9.732890871     0.282352311
 H       -1.285671344    11.373559718    -0.605794278
 H       -0.371523293     9.118244551    -0.595416962
 H       -5.009949651    13.866611696     1.663293718
 H       -3.947539182    11.063908923     2.549020345
 H       -4.109820933    10.512446256     4.778373200
 H       -4.753137561    10.999392067     7.099291394
 H       -6.116025967    14.912884257     5.870354453
 H       -5.564117012    14.373592105     3.554511312
 H       -6.816681368    14.545720403     9.349989625
 H       -7.384164814    14.620795501     7.674126631
 H       -5.832294246    15.403874011     8.117160899
 H       -3.632652155    15.858481151    11.323572260
 H       -4.871327913    15.710149365    10.041736871
 H       -3.770795039    17.126592061    10.095605091
 H       -0.905447136    14.570448398     7.828391328
 H       -0.690594024    15.076597645     5.428499560
 H       -4.294136619    17.428222057     5.599295717
 H       -4.483716717    16.983431615     7.996188782
 H       -1.416453524    16.071930526     3.486376570
 H       -4.035824490    17.767046150     3.631958512
 H       -5.457976125    16.315732889     2.324717242
 H       -7.401862566    15.453047957     1.137964234
 H       -5.671511709    16.619226446    -2.627208680
 H       -3.722282625    17.509817384    -1.484675753
 H       -8.613367451    15.011793991    -0.801484172
 H       -7.344268565    15.871819876    -3.492327110
 H      -10.277516028    14.258951836    -1.658883382
 H      -12.237908649    13.384282427    -2.792600669
 H      -10.511392476    14.566005336    -6.608591513
 H       -8.566309963    15.429610173    -5.431235908
 H       -5.185597259    13.249901596    10.028600154
 H       -5.129995390    11.680941302     9.199086911
 H       -2.903829749    11.963253884     8.842828637
 H       -3.244545113    13.276578235     7.740068523
 H       -3.016114594    13.729203872    10.799007983
 H       -1.590910559    13.689261985     9.738609955
 H        2.266594858    -1.029785627     0.043761647
 H        2.272056656     0.547336290     0.871027170
 H        2.276850449     0.471872135    -0.911445977
 H      -15.166291079    12.179280690    -5.049383049
 H      -14.621053925    13.318622295    -3.795215230
 H      -13.862596950    11.708967525    -3.932390654
 H      -14.118534282    15.462064539    -6.005315295
 H      -13.078098571    15.080826768    -7.398670862
 H      -14.672979563    14.301946371    -7.239691301
 H      -11.973948843    11.068186406    -6.312391962
 H      -13.299996967    11.474127923    -7.432184599
 H      -11.715044128    12.272075107    -7.598061410
 H       -3.772469329    20.000179106     1.520518785
 H       -2.001827494    19.938565260     1.704295800
 H       -2.738947311    19.765992415     0.090215881
 H       -1.427571520    15.746508410     0.870699769
 H       -1.295172459    17.021139252    -0.368019441
 H       -0.494070519    17.230397645     1.208356122
 H       -1.983287037    13.797730038    -0.112576040
 H       -2.488152489    13.436143782    -1.788068731
 H       -3.334019093    14.696343708    -0.855822623
 H       -6.365833047    11.751609527    -0.867797060
 H       -6.051275216    13.460367767    -1.261137996
 H       -5.349428716    12.170277818    -2.270833747
 H       -0.282314302    -0.358692336    -2.449923004
 H       -0.262855618    -1.913312869    -1.577576047
 H       -1.727048966    -0.896395447    -1.560414628
 H       -0.280840686    -0.364507959     2.448605332
 H       -1.707186328    -0.949522978     1.557563873
 H       -0.212754075    -1.918415819     1.578005512

