139   

Si        0.000000000     0.000000000     0.000000000
 C        1.868718412     0.000000000     0.000000000
 C       -0.582765045     1.751649425     0.000000000
 C       -0.482998097     2.517539117    -1.167770075
 C       -0.917709823     3.841653081    -1.186919449
 C       -1.453200230     4.435014839    -0.039649239
 C       -1.548522064     3.668277779     1.128519598
 C       -1.119650156     2.342761520     1.149239416
 C       -1.920442372     5.817398214    -0.014177916
 C       -1.888531472     6.653457409    -1.065767387
 C       -2.354871738     8.036128757    -1.043680782
 C       -2.890844285     8.632836100     0.101450363
 C       -3.324446432     9.957697116     0.077693617
 C       -3.225817448    10.715930438    -1.093918273
 C       -2.690380809    10.121654290    -2.242803267
 C       -2.263370135     8.796155193    -2.216908017
Si       -3.799887066    12.469560551    -1.124898016
 C       -3.065462892    13.293685644    -2.586504015
 C       -3.753565248    13.853950670    -3.589967163
 C       -3.135692610    14.505983470    -4.746058867
 C       -3.962833110    15.057894249    -5.735793801
 C       -3.428330018    15.685192921    -6.848526090
 C       -2.029880885    15.822796075    -6.988340431
 C       -1.199270494    15.269192080    -5.997045619
 C       -1.751605816    14.604231829    -4.909289933
 N       -1.514372627    16.464915130    -8.129935500
 C       -2.240427989    17.661863400    -8.592622497
 C       -0.052667018    16.615239366    -8.210832944
 C       -2.412922712    18.740549064    -7.503395196
 C       -2.526175066    20.153058284    -8.104632605
 N       -1.258740783    20.918087957    -8.120286225
 C       -0.212778984    20.286739668    -8.845562581
 C       -0.412560192    20.078977474   -10.225328406
 C        0.570147614    19.468539265   -10.986602240
 C        1.789354028    19.075435167   -10.412296756
 C        1.991549735    19.307194609    -9.050144181
 C        1.011149148    19.914000934    -8.271730186
 C       -0.893475378    21.427175142    -6.786422757
 C        2.794920271    18.433611957   -11.262938276
 C        3.990476254    18.018026628   -10.825309961
Si        5.277069228    17.211576557   -11.852202088
 C        6.796812953    18.255179829   -11.802078364
 C        6.718806490    19.607358122   -11.453341476
 C        7.868482389    20.395704054   -11.415706343
 C        9.117015028    19.853169933   -11.732091966
 C        9.190947990    18.499111794   -12.085613352
 C        8.045486965    17.708075064   -12.121737829
 C       10.346230714    20.639626063   -11.706267082
 C       10.412470897    21.943013886   -11.385363334
 C       11.640642917    22.730869988   -11.359036463
 C       12.890232489    22.190381650   -11.672305591
 C       14.039081524    22.981066760   -11.634069188
 C       13.961679622    24.331980098   -11.283527464
 C       12.709201841    24.877032613   -10.968823810
 C       11.565000945    24.085177002   -11.005522130
Si       15.463163495    25.404549458   -11.223700111
 C       16.963807670    24.481694517   -11.848321934
 C       15.176371668    26.905661897   -12.300004831
 C       15.747838973    25.930256957    -9.453265984
 C        5.623970080    15.528900757   -11.118465275
 C        4.731242597    17.033378425   -13.628087305
 C       -5.665898840    12.482974996    -1.188803719
 C       -3.205553123    13.362739844     0.405081651
 C       -0.640365735    -0.864899622    -1.528424607
 C       -0.623442876    -0.900738458     1.514887409
 H       -0.069970791     2.110590553    -2.095114904
 H       -0.834092933     4.414115417    -2.109181880
 H       -1.963095865     4.109782183     2.032965622
 H       -1.222023130     1.793934686     2.089338472
 H       -2.315233222     6.149228054     0.950515603
 H       -1.493646247     6.320309102    -2.030282607
 H       -2.974190894     8.063438406     1.025179042
 H       -3.735660821    10.369770381     1.003164386
 H       -2.592586407    10.668258889    -3.186984944
 H       -1.852208990     8.349556267    -3.120525540
 H       -1.963372298    13.301048589    -2.579973342
 H       -4.851091979    13.865027851    -3.623061305
 H       -5.045973761    14.982584178    -5.636314169
 H       -4.091836757    16.069746888    -7.617951988
 H       -0.119103389    15.350411824    -6.068292432
 H       -1.084516756    14.168779737    -4.163380533
 H        0.221648471    17.048033869    -9.191460551
 H        0.423110364    15.620021712    -8.158662225
 H        0.371735726    17.264336322    -7.428146752
 H       -1.715980407    22.063017556    -6.413830702
 H       -0.002571501    22.074003941    -6.872727027
 H       -0.694742676    20.644219068    -6.038021667
 H       -1.338738899    20.411325914   -10.689673361
 H        0.397517352    19.305253821   -12.050831355
 H        2.933248242    19.016680519    -8.581251794
 H        1.201074173    20.077048929    -7.214725058
 H        2.473492428    18.325227398   -12.307031683
 H        4.284754876    18.140472893    -9.769804422
 H        5.768141767    20.087923347   -11.198876187
 H        7.782880523    21.444937882   -11.137844026
 H       10.153810650    18.057460162   -12.335562035
 H        8.164475863    16.658264293   -12.403157116
 H       11.249982517    20.084762864   -11.974507848
 H        9.507998490    22.497636312   -11.117531152
 H       12.978007248    21.141519923   -11.950109212
 H       14.988089805    22.501405814   -11.888916161
 H       12.587749320    25.926898020   -10.687449132
 H       10.600944973    24.525845372   -10.757553946
 H       -1.697829995    18.077142950    -9.473353154
 H       -3.233611839    17.339116193    -8.978319302
 H       -3.304979887    18.510850577    -6.891283066
 H       -1.564507213    18.695740021    -6.793309297
 H       -2.910155563    20.108065413    -9.148404606
 H       -3.274505359    20.751247915    -7.537103854
 H        2.272178884    -1.027623513    -0.011889982
 H        2.268897659     0.505886892     0.897384147
 H        2.272160823     0.528250795    -0.882340030
 H       17.855434761    25.134006558   -11.860889841
 H       16.811222910    24.112170314   -12.878130326
 H       17.200986941    23.612057897   -11.210098488
 H       14.979612183    26.613777086   -13.347753588
 H       14.309073547    27.494899545   -11.953724490
 H       16.055130596    27.574325602   -12.299954576
 H       15.918171430    25.055839794    -8.799047232
 H       16.629293964    26.589427782    -9.365241558
 H       14.878375248    26.478689186    -9.049256584
 H        6.022972332    15.611561384   -10.091188314
 H        4.703996696    14.918306097   -11.068646194
 H        6.362317554    14.968373516   -11.718040988
 H        4.515625101    18.017197127   -14.083930017
 H        5.514702039    16.553584571   -14.242152548
 H        3.818943392    16.416329332   -13.710789479
 H       -6.040259914    11.966541247    -2.091716881
 H       -6.101722109    11.969451422    -0.313258169
 H       -6.061710746    13.513906435    -1.202312954
 H       -2.106279681    13.305394119     0.502818445
 H       -3.480154778    14.432615449     0.373280406
 H       -3.643890791    12.933281120     1.322562867
 H       -0.257416969    -0.398892985    -2.453185401
 H       -0.339875738    -1.927473112    -1.543115931
 H       -1.744244061    -0.830609864    -1.572896183
 H       -0.213095577    -0.468219091     2.444387313
 H       -1.725462563    -0.859504505     1.582159426
 H       -0.333408340    -1.966469937     1.491837330

