139   

Si        0.000000000     0.000000000     0.000000000
 C        1.869472756     0.000000000     0.000000000
 C       -0.637594483     1.732644952     0.000000000
 C        0.098146294     2.765782859     0.590305041
 C       -0.386584132     4.073365619     0.588424928
 C       -1.619268511     4.377600492     0.004384919
 C       -2.357154043     3.340792980    -0.581805895
 C       -1.874533455     2.034498394    -0.583565783
 C       -2.166972282     5.729930843    -0.021731693
 C       -1.563025959     6.811207199     0.500325445
 C       -2.113334192     8.162639689     0.472679436
 C       -1.376938632     9.202739096     1.055862945
 C       -1.862134899    10.508062272     1.053306810
 C       -3.101631634    10.802142880     0.471852272
 C       -3.838977394     9.766150636    -0.110389896
 C       -3.347243021     8.461271456    -0.111629094
Si       -3.748108659    12.530666155     0.466424489
 C       -5.551865601    12.469068190     0.153422972
 C       -6.182545687    13.043307308    -0.879257845
 C       -7.628415859    12.973709770    -1.098820319
 C       -8.177185106    13.615825620    -2.218137244
 C       -9.538849423    13.579495061    -2.470183406
 C      -10.403223046    12.846693108    -1.628444862
 C       -9.852700152    12.199814546    -0.506439533
 C       -8.491753567    12.285854179    -0.241910603
 N      -11.785292914    12.820831580    -1.899812676
 C      -12.178312230    12.807197347    -3.321450280
 C      -12.607462883    11.914129983    -1.079833949
 C      -11.665248467    11.568227561    -4.072457798
 C      -12.125794613    11.592328284    -5.538542781
 N      -11.768730153    10.365064324    -6.275301715
 C      -12.314534009     9.159525413    -5.789923084
 C      -13.613802983     9.151505312    -5.238320651
 C      -14.165470322     7.975635365    -4.756720493
 C      -13.473298396     6.759235713    -4.846505390
 C      -12.199931402     6.763429721    -5.421426056
 C      -11.625873961     7.936743960    -5.894702629
 C      -10.349839418    10.338601475    -6.670717254
 C      -14.103973750     5.547497761    -4.321263658
 C      -13.544183790     4.330579583    -4.349312413
Si      -14.326065083     2.808973825    -3.694444209
 C      -15.986665757     3.211919394    -2.998283566
 C      -16.262579989     3.085328657    -1.632709448
 C      -17.526552037     3.397123821    -1.135707052
 C      -18.541138146     3.848935069    -1.988756367
 C      -18.261361559     3.978245522    -3.352739265
 C      -16.999424479     3.664229638    -3.853429290
 C      -19.848420298     4.162803886    -1.421236043
 C      -20.903809581     4.600494449    -2.128547915
 C      -22.211485173     4.914653086    -1.562092206
 C      -22.493728424     4.786312276    -0.199425181
 C      -23.758407452     5.097948368     0.299034924
 C      -24.768330028     5.553055088    -0.554960695
 C      -24.487855856     5.682534060    -1.921252319
 C      -23.226483961     5.363499682    -2.417444528
Si      -26.445480454     5.967880898     0.096658150
 C      -26.341487130     6.418243640     1.908210605
 C      -27.149563920     7.419665298    -0.847781196
 C      -27.547087029     4.474652503    -0.121011946
 C      -14.529159415     1.578001675    -5.085234576
 C      -13.207836126     2.088922009    -2.381887934
 C       -3.477171260    13.321585443     2.137268511
 C       -2.849262753    13.498892839    -0.852887119
 C       -0.602984369    -0.902090816    -1.522636226
 C       -0.632172365    -0.857494254     1.535142358
 H        1.068279371     2.590212255     1.063474538
 H        0.207702885     4.859746958     1.050586236
 H       -3.319864746     3.555528441    -1.042246754
 H       -2.494547762     1.268464769    -1.057289687
 H       -3.141077987     5.818695452    -0.512147678
 H       -0.589276766     6.723225258     0.990996221
 H       -0.413934516     8.990872241     1.516442497
 H       -1.243413440    11.278465676     1.521360905
 H       -4.813190759     9.939820601    -0.580002962
 H       -3.938650443     7.672376269    -0.573081088
 H       -6.110529331    11.902056625     0.916021897
 H       -5.654835976    13.616539738    -1.652870516
 H       -7.525387589    14.165793789    -2.897676471
 H       -9.935978228    14.119222848    -3.325061337
 H      -10.480750936    11.628548820     0.170122266
 H       -8.094457547    11.787519701     0.644264335
 H      -13.667730603    12.005519492    -1.370918357
 H      -12.540861161    12.221618512    -0.020581867
 H      -12.315676286    10.854247243    -1.165177338
 H      -10.045403750    11.332387657    -7.040026210
 H      -10.221024504     9.633936886    -7.512103346
 H       -9.669418625    10.049557567    -5.852839250
 H      -14.190817479    10.070159397    -5.183370014
 H      -15.162149878     7.996987449    -4.313122021
 H      -11.639198102     5.831314056    -5.504885141
 H      -10.633712535     7.892655435    -6.332483830
 H      -15.099522471     5.731781636    -3.890808029
 H      -12.545320178     4.170581158    -4.783079327
 H      -15.509727277     2.740921144    -0.918489768
 H      -17.723536131     3.288673037    -0.070839440
 H      -19.032643210     4.326683800    -4.037279563
 H      -16.840004956     3.784701136    -4.929761589
 H      -19.925440829     4.015234725    -0.340004375
 H      -20.827494471     4.747188140    -3.210169019
 H      -21.724136927     4.438455094     0.487440415
 H      -23.918958952     4.975565623     1.373841098
 H      -25.237400809     6.032814414    -2.636331132
 H      -23.028918542     5.467815887    -3.482819930
 H      -13.288918569    12.865841832    -3.377274681
 H      -11.804319965    13.739972607    -3.800964328
 H      -10.560790988    11.517043102    -4.016312658
 H      -12.025752912    10.645257396    -3.576107938
 H      -13.229264406    11.730579083    -5.602642770
 H      -11.683842248    12.463614652    -6.072060779
 H        2.268128396    -1.026872805    -0.081935208
 H        2.279611212     0.440073375     0.925769911
 H        2.269282240     0.580082571    -0.851462820
 H      -27.318290409     6.765807551     2.289427242
 H      -25.611634447     7.230455497     2.077736273
 H      -26.034082884     5.557097171     2.527069923
 H      -26.477605443     8.295363038    -0.792747438
 H      -27.298657951     7.181127131    -1.915274548
 H      -28.128474121     7.725998380    -0.438003716
 H      -27.151422287     3.600029357     0.426304578
 H      -28.567742505     4.669019512     0.252762778
 H      -27.629398398     4.186762618    -1.184498348
 H      -15.147183140     1.989893822    -5.903301787
 H      -13.554303811     1.292216910    -5.517878846
 H      -15.021570807     0.654447008    -4.730780499
 H      -13.023388256     2.812863403    -1.567442635
 H      -13.645667097     1.179561578    -1.933519991
 H      -12.224758096     1.810712921    -2.802016878
 H       -3.935140201    12.722094326     2.944863950
 H       -2.403072012    13.426795954     2.368759041
 H       -3.927332017    14.330193252     2.177628005
 H       -2.994888692    13.048150461    -1.851554531
 H       -3.205049066    14.543459614    -0.899445879
 H       -1.761682251    13.525046752    -0.660870962
 H       -0.311563477    -0.367951942    -2.445158212
 H       -0.175981000    -1.919188198    -1.579284323
 H       -1.702084677    -1.005197233    -1.529776440
 H       -0.287367556    -0.346227313     2.451993892
 H       -1.736603104    -0.871176501     1.562337758
 H       -0.283455298    -1.903950231     1.584480885

