139   

Si        0.000000000     0.000000000     0.000000000
 C        1.869751942     0.000000000     0.000000000
 C       -0.624690659     1.737298927     0.000000000
 C        0.064445813     2.736721053    -0.696161103
 C       -0.402778417     4.050342121    -0.699561968
 C       -1.571771103     4.394901097    -0.014848393
 C       -2.262860371     3.392117453     0.677419690
 C       -1.797079313     2.079429967     0.684668478
 C       -2.097889034     5.755856952     0.009183574
 C       -1.531242380     6.805713594    -0.609438835
 C       -2.056367871     8.167107219    -0.586160241
 C       -3.225295642     8.512253329     0.098372463
 C       -3.691484471     9.826455760     0.094156244
 C       -2.990212529    10.826075613    -0.587911035
 C       -1.818698576    10.484113915    -1.274410699
 C       -1.361293265     9.168814155    -1.276394083
Si       -3.601050337    12.567424496    -0.597916722
 C       -2.170410326    13.664347282    -0.922788249
 C       -2.033810871    14.508874725    -1.953295767
 C       -0.857772111    15.360084413    -2.152122940
 C       -0.810442611    16.212607587    -3.265635393
 C        0.280927041    17.034274891    -3.493030793
 C        1.370044223    17.043215827    -2.592989668
 C        1.331494786    16.176736268    -1.485863962
 C        0.242252830    15.335542365    -1.291617742
 N        2.463065529    17.888472576    -2.851780015
 C        2.170238202    19.249500930    -3.339233872
 C        3.611852383    17.820271304    -1.938327718
 C        1.039233001    19.999433839    -2.614653262
 C        1.415327813    20.562257976    -1.229173886
 N        0.674893770    20.007438503    -0.069409633
 C       -0.659756186    19.614258417    -0.357625574
 C       -1.544890848    20.604679230    -0.825413370
 C       -2.858097566    20.276615882    -1.121999706
 C       -3.332113214    18.967931435    -0.948996546
 C       -2.454059594    17.994590652    -0.465963237
 C       -1.135755655    18.310499095    -0.161059688
 C        1.455655312    19.045644635     0.725615007
 C       -4.728109478    18.670441890    -1.276340930
 C       -5.277169729    17.456253794    -1.146931787
Si       -7.011098627    17.018194760    -1.537386852
 C       -6.917919963    15.718132335    -2.845729386
 C       -5.824019686    15.697126568    -3.721626273
 C       -5.734934980    14.725614622    -4.714547850
 C       -6.736728946    13.756589729    -4.859615031
 C       -7.828321448    13.783643230    -3.986895324
 C       -7.920542808    14.755360838    -2.990416247
 C       -6.598605671    12.759051102    -5.915294645
 C       -7.483561024    11.778274067    -6.161202334
 C       -7.345186882    10.780608908    -7.217196915
 C       -6.253972819    10.753116625    -8.090040196
 C       -6.162201817     9.781036776    -9.085546446
 C       -7.157499239     8.807920534    -9.224889390
 C       -8.251565920     8.832975066    -8.350880220
 C       -8.344571707     9.809519284    -7.362300419
Si       -7.039129589     7.519114981   -10.542150250
 C       -5.246410768     7.187295209   -10.955501266
 C       -7.826777396     5.930254713    -9.950812586
 C       -7.933589278     8.144205495   -12.058828656
 C       -7.802129338    16.332068438     0.008648203
 C       -7.986821077    18.471676324    -2.178741970
 C       -4.897479864    12.687771422    -1.929143820
 C       -4.331125771    13.047807892     1.052974462
 C       -0.633875766    -0.852796072    -1.537101601
 C       -0.605989363    -0.905921192     1.518996132
 H        0.983307066     2.528709598    -1.251321022
 H        0.154048776     4.809789325    -1.245780977
 H       -3.175567427     3.638296469     1.217041729
 H       -2.378235124     1.341082852     1.243671034
 H       -3.020566464     5.879413991     0.583622843
 H       -0.609163692     6.681626548    -1.185245444
 H       -3.784927179     7.752439500     0.640455177
 H       -4.613605471    10.035540357     0.642922942
 H       -1.232763317    11.226616850    -1.826359667
 H       -0.451604284     8.920027485    -1.819786853
 H       -1.380514177    13.573370389    -0.158399623
 H       -2.799106425    14.630689686    -2.731004899
 H       -1.648545392    16.235590794    -3.963990474
 H        0.303346178    17.668002970    -4.375166589
 H        2.154255280    16.139251578    -0.779837955
 H        0.249101311    14.657489977    -0.435780183
 H        4.464707115    18.359749481    -2.386651758
 H        3.931895309    16.768232196    -1.824812252
 H        3.417162410    18.244181609    -0.940935695
 H        2.402254649    19.519836955     1.034271538
 H        1.678515700    18.101387437     0.203133443
 H        0.898569876    18.810339603     1.651387753
 H       -1.189630038    21.624413798    -0.950390743
 H       -3.530744565    21.050585008    -1.490110181
 H       -2.792029358    16.963832204    -0.332892293
 H       -0.473658306    17.522042603     0.190257245
 H       -5.286356012    19.542684274    -1.638087232
 H       -4.685344942    16.600413940    -0.777895310
 H       -5.011514895    16.429225457    -3.652159325
 H       -4.877398435    14.721318815    -5.385121512
 H       -8.619349050    13.041868629    -4.079283594
 H       -8.795953552    14.726213513    -2.336485500
 H       -5.693915904    12.857276478    -6.522703630
 H       -8.388049068    11.678149474    -5.553857574
 H       -5.462207336    11.494661246    -7.998569479
 H       -5.285492622     9.811771516    -9.738531838
 H       -9.058556417     8.097577446    -8.411150341
 H       -9.203310221     9.812757840    -6.693431568
 H        3.104362555    19.852354173    -3.315651303
 H        1.902188713    19.149380836    -4.420558934
 H        0.698401434    20.831937950    -3.261006220
 H        0.151137502    19.335708542    -2.540605479
 H        2.505746660    20.454724457    -1.052504815
 H        1.210895858    21.660369004    -1.213992994
 H        2.269448827    -1.026368622     0.080717725
 H        2.268780629     0.580048434     0.851936316
 H        2.279296868     0.442359566    -0.924837303
 H       -5.150436180     6.357503554   -11.678159633
 H       -4.672986461     6.908479189   -10.052609220
 H       -4.758009815     8.071073356   -11.401787107
 H       -7.362926070     5.579943226    -9.010624436
 H       -8.907835352     6.052782510    -9.764015007
 H       -7.710042683     5.124802026   -10.697570898
 H       -7.487384086     9.084137319   -12.430571623
 H       -7.895058765     7.408067334   -12.880813492
 H       -8.997536700     8.349094501   -11.842790817
 H       -7.286167579    15.417030404     0.352858379
 H       -7.761838556    17.065129703     0.835030557
 H       -8.863121744    16.076128299    -0.155540694
 H       -7.534837104    18.889718147    -3.096598897
 H       -9.023494702    18.181558819    -2.427746973
 H       -8.039486807    19.283361933    -1.431029944
 H       -4.492462022    12.406946777    -2.919374178
 H       -5.748804303    12.013649551    -1.725978070
 H       -5.304960327    13.711906956    -2.021309529
 H       -3.597974504    12.931824848     1.870673921
 H       -4.660103123    14.103521210     1.048141707
 H       -5.209659447    12.428399134     1.302892550
 H       -0.289220693    -0.340228499    -2.453164868
 H       -0.287532775    -1.899803438    -1.588963800
 H       -1.738459597    -0.863918279    -1.563586070
 H       -0.309004470    -0.379638875     2.444185113
 H       -1.705800121    -1.001979833     1.526765715
 H       -0.185762355    -1.926211732     1.569057733

