139   

Si        0.000000000     0.000000000     0.000000000
 C        1.869332567     0.000000000     0.000000000
 C       -0.649039509     1.728421104     0.000000000
 C        0.174504550     2.814813316     0.310715388
 C       -0.332398015     4.114307327     0.305939337
 C       -1.672759811     4.357252730    -0.005456919
 C       -2.497740237     3.266973935    -0.313060312
 C       -1.994573126     1.968770750    -0.309037109
 C       -2.246109507     5.699167354    -0.022827973
 C       -1.565019549     6.824572412     0.252251879
 C       -2.135958248     8.167504928     0.235577079
 C       -3.476530853     8.413514292    -0.075585052
 C       -3.980110738     9.713707647    -0.079467389
 C       -3.148943318    10.797666572     0.222666402
 C       -1.805837632    10.555227044     0.535039319
 C       -1.307888006     9.254579965     0.544073354
Si       -3.811945717    12.520058359     0.218524165
 C       -2.400210839    13.680074227     0.086489591
 C       -2.080688581    14.621844026     0.983892554
 C       -0.943696368    15.533978875     0.847346390
 C       -0.708232485    16.481478337     1.854729778
 C        0.353365711    17.366819614     1.773232561
 C        1.255707534    17.302454657     0.688240966
 C        1.021223860    16.351675256    -0.322626323
 C       -0.074666912    15.501010272    -0.246051269
 N        2.325338760    18.210083230     0.625509128
 C        2.962585449    18.599595303     1.896597593
 C        3.256667253    18.078088363    -0.503568838
 C        3.430192637    17.433898373     2.784377474
 C        4.738881809    16.774045065     2.318395435
 N        5.972468919    17.485924405     2.695810614
 C        6.180720809    17.754187982     4.057764686
 C        5.690279041    16.857081811     5.032431789
 C        5.888234273    17.108740515     6.379706905
 C        6.618450407    18.226184467     6.811005573
 C        7.129228519    19.095760090     5.844334354
 C        6.925108386    18.869001508     4.489034907
 C        6.393913359    18.514416222     1.734019997
 C        6.795301197    18.441307707     8.247551879
 C        7.469867668    19.467914403     8.782214160
Si        7.696738306    19.745812739    10.578743702
 C        6.860445294    18.405710806    11.532530390
 C        5.819766602    18.676989599    12.427066932
 C        5.207761260    17.643075305    13.133079313
 C        5.617059423    16.315094236    12.959294014
 C        6.656356179    16.046589348    12.063081088
 C        7.272184962    17.078393689    11.357465396
 C        4.945499959    15.267288374    13.721195238
 C        5.243098246    13.958792353    13.648908766
 C        4.571689339    12.910698664    14.410717421
 C        3.532345678    13.178139202    15.307131914
 C        2.918607887    12.145989741    16.014592740
 C        3.331684111    10.819339413    15.840854371
 C        4.371122312    10.549108810    14.944100229
 C        4.982570121    11.583029821    14.237902260
Si        2.499179809     9.474113510    16.792285564
 C        0.689525777     9.445687854    16.326101329
 C        3.262153755     7.812655185    16.403989623
 C        2.684283407     9.825439088    18.618671734
 C        9.522428848    19.722261919    10.975387201
 C        6.982915381    21.417991687    11.010352410
 C       -4.915276360    12.778351539    -1.266877577
 C       -4.783415918    12.787198240     1.790206550
 C       -0.605979723    -0.887922989    -1.529522274
 C       -0.627308662    -0.866629194     1.531904360
 H        1.231192007     2.688611270     0.562054824
 H        0.330659205     4.942755192     0.549411539
 H       -3.545125232     3.433802147    -0.557947737
 H       -2.686249066     1.158701296    -0.556446237
 H       -3.307683955     5.740039277    -0.283595801
 H       -0.503259093     6.783350155     0.513441441
 H       -4.140921984     7.586264317    -0.318081281
 H       -5.036579230     9.844003804    -0.329032501
 H       -1.112049896    11.366158511     0.780975215
 H       -0.261720740     9.084620803     0.792183434
 H       -1.806245933    13.545531204    -0.832071591
 H       -2.655356820    14.782232453     1.905891146
 H       -1.378963019    16.532738420     2.713388395
 H        0.487053530    18.114190574     2.550636887
 H        1.686185414    16.269934847    -1.175782216
 H       -0.242065822    14.783877399    -1.051616583
 H        4.012656109    18.880049712    -0.463171778
 H        2.698499476    18.216406616    -1.449084264
 H        3.775847578    17.106396934    -0.541606787
 H        6.180721257    18.182054418     0.704663258
 H        7.490559778    18.645164032     1.804569602
 H        5.912312428    19.493115471     1.894167390
 H        5.150514050    15.963462130     4.731967075
 H        5.479974358    16.414969747     7.116789288
 H        7.701784528    19.972098586     6.151719453
 H        7.339864239    19.571735487     3.774592104
 H        6.308842418    17.668311860     8.861243698
 H        7.944132462    20.231765550     8.147559843
 H        5.455222586    19.692772119    12.602017961
 H        4.401125182    17.874204190    13.826324465
 H        6.994254878    15.023130244    11.910215448
 H        8.081415100    16.806984834    10.671802333
 H        4.150592903    15.621667431    14.384129884
 H        6.037952596    13.603938318    12.986111072
 H        3.193305783    14.201263605    15.459834333
 H        2.111390769    12.417468993    16.700931127
 H        4.734733697     9.533149581    14.767728588
 H        5.789228488    11.351907722    13.544521546
 H        3.811651257    19.283092387     1.677260557
 H        2.223120282    19.220236542     2.459334738
 H        3.545336218    17.797917511     3.826576531
 H        2.634933364    16.661658487     2.836415090
 H        4.807562962    15.742546160     2.742435072
 H        4.731475608    16.633198131     1.215356000
 H        2.267024580    -1.029101410    -0.057508010
 H        2.278284327     0.459900133     0.916869232
 H        2.271170866     0.558580883    -0.864469596
 H        0.146145012     8.652779284    16.869427773
 H        0.558583821     9.258655213    15.244657655
 H        0.196086287    10.406572266    16.555987475
 H        3.149720855     7.554691611    15.335838230
 H        4.340054579     7.794565077    16.644256179
 H        2.780804443     7.008060382    16.988584074
 H        2.228834107    10.792770864    18.894863763
 H        2.201090611     9.042616500    19.229372128
 H        3.749187794     9.867066983    18.911696670
 H        9.980021712    18.751583436    10.711778677
 H       10.067022259    20.507419850    10.422278431
 H        9.698180891    19.888686907    12.053540077
 H        5.908202914    21.473803530    10.758775597
 H        7.090424419    21.637620408    12.087215263
 H        7.491885104    22.226045037    10.455056151
 H       -4.381665341    12.555581041    -2.208591734
 H       -5.808061993    12.130433741    -1.228790280
 H       -5.265425079    13.825090356    -1.324999512
 H       -4.151894934    12.632446988     2.684234519
 H       -5.195680156    13.810555649     1.841437258
 H       -5.630904763    12.082170864     1.862679989
 H       -0.276886469    -0.369323471    -2.448403428
 H       -0.216873912    -1.920561080    -1.573462944
 H       -1.707953375    -0.947021820    -1.558964322
 H       -0.280488958    -0.358816928     2.450168324
 H       -1.731441327    -0.882889746     1.562542340
 H       -0.275944112    -1.912424210     1.575768698

