139   

Si        0.000000000     0.000000000     0.000000000
 C        1.869054158     0.000000000     0.000000000
 C       -0.601142001     1.745263640     0.000000000
 C       -0.179519811     2.622668825     1.006617421
 C       -0.620991749     3.944529195     1.025853442
 C       -1.494686484     4.420517011     0.043317505
 C       -1.916160711     3.540931603    -0.961610888
 C       -1.475664212     2.219201715    -0.984045316
 C       -1.982813797     5.795611334     0.023351814
 C       -1.655890520     6.737060751     0.924929109
 C       -2.145027330     8.111928930     0.903458026
 C       -1.722880365     8.993030830     1.908082259
 C       -2.163070970    10.314136664     1.928732307
 C       -3.044838464    10.782514678     0.947259642
 C       -3.468853476     9.905141628    -0.056314053
 C       -3.020054208     8.585125575    -0.078265648
Si       -3.634575171    12.531023655     0.964867401
 C       -5.225084374    12.605372572     0.059265965
 C       -5.463367220    13.338408946    -1.036255875
 C       -6.748535449    13.374755801    -1.736452541
 C       -6.877810970    14.182731003    -2.876323229
 C       -8.071786079    14.251845810    -3.573833364
 C       -9.204172644    13.538731263    -3.123099261
 C       -9.076066227    12.727238631    -1.981720416
 C       -7.858098432    12.635646041    -1.319008880
 N      -10.404376456    13.629411722    -3.854538075
 C      -10.768628897    14.973548213    -4.341246036
 C      -11.557739762    12.875272248    -3.338039511
 C      -10.789807795    16.049682726    -3.235883632
 C      -11.799816977    17.171212235    -3.539521554
 N      -13.104956105    17.024617040    -2.856258923
 C      -13.781761851    15.812434455    -3.156772420
 C      -14.146662308    15.586715793    -4.499555214
 C      -14.808553760    14.423385803    -4.854551800
 C      -15.160952156    13.468774074    -3.887144414
 C      -14.820451548    13.710128308    -2.554814267
 C      -14.146134911    14.869566897    -2.184852454
 C      -13.032986315    17.380086107    -1.427953715
 C      -15.860031080    12.256427402    -4.318462417
 C      -16.247523742    11.275681360    -3.492495555
Si      -17.122261633     9.757851467    -4.029244344
 C      -17.370192624     9.813253520    -5.856473216
 C      -18.566311700    10.285799002    -6.405740392
 C      -18.745293631    10.324218095    -7.788277683
 C      -17.729511076     9.905985562    -8.652161543
 C      -16.528381936     9.441309290    -8.099771638
 C      -16.348697116     9.396416967    -6.719768269
 C      -17.871998468     9.928494354   -10.104209288
 C      -18.967725126    10.348850725   -10.758755764
 C      -19.110127574    10.371321318   -12.210991337
 C      -18.096488462     9.947891966   -13.074884178
 C      -18.275675646     9.986632643   -14.457341496
 C      -19.478828900    10.441444993   -15.007112908
 C      -20.496867462    10.865136815   -14.143341572
 C      -20.312111639    10.833173750   -12.763419156
Si      -19.722409490    10.495213407   -16.836777596
 C      -18.643377110     9.215305671   -17.668782854
 C      -21.510450818    10.138955405   -17.250234774
 C      -19.259310921    12.201639297   -17.440715632
 C      -16.089464231     8.270780223    -3.567818616
 C      -18.767115945     9.668924160    -3.148191848
 C       -3.941014505    13.094911332     2.719820241
 C       -2.332124076    13.605260027     0.167619727
 C       -0.613775479    -0.913546857    -1.510813612
 C       -0.639737772    -0.847539209     1.538129920
 H        0.502330656     2.308560374     1.802034306
 H       -0.277794386     4.607500458     1.818184381
 H       -2.596132409     3.890344396    -1.736589444
 H       -1.838331459     1.580059399    -1.793569091
 H       -2.660190880     6.028268912    -0.803885391
 H       -0.978604498     6.505454379     1.752146312
 H       -1.041696285     8.644130454     2.681760733
 H       -1.798460000    10.956029805     2.735085306
 H       -4.158147666    10.218297636    -0.848141239
 H       -3.361986563     7.922084330    -0.871122455
 H       -6.012363339    11.974827555     0.503493190
 H       -4.699923077    13.977007791    -1.500144647
 H       -6.021300271    14.758150900    -3.228377394
 H       -8.134657666    14.856491786    -4.474243442
 H       -9.922080576    12.161163078    -1.604532262
 H       -7.780685478    11.985607463    -0.445903832
 H      -12.405114554    12.962642213    -4.044264982
 H      -11.909144089    13.219006350    -2.351717961
 H      -11.300144732    11.803102167    -3.281390324
 H      -12.673270152    18.420591702    -1.340480197
 H      -12.371795418    16.733283280    -0.830247948
 H      -14.047444855    17.354708756    -0.992349657
 H      -13.914889198    16.336857092    -5.252856148
 H      -15.073645533    14.255094581    -5.899463963
 H      -15.087726968    12.985751183    -1.784403641
 H      -13.892414426    15.022726698    -1.140107563
 H      -16.041457470    12.224930975    -5.402974220
 H      -16.058219637    11.328657796    -2.409510148
 H      -19.395568779    10.631413280    -5.781656123
 H      -19.688971421    10.688252388    -8.190710604
 H      -15.724462836     9.110661183    -8.754916462
 H      -15.389920033     9.023478330    -6.347404207
 H      -16.998580763     9.567466929   -10.655341816
 H      -19.841833792    10.709494371   -10.208285160
 H      -17.152897945     9.583232060   -12.672622295
 H      -17.445344760     9.644457244   -15.081340521
 H      -21.458455912    11.229769851   -14.515195287
 H      -21.114497791    11.168735712   -12.108800498
 H      -10.049558456    15.257329422    -5.142520179
 H      -11.762532521    14.903650527    -4.840664970
 H      -11.025254779    15.580391998    -2.260838503
 H       -9.775566802    16.470763818    -3.107214362
 H      -11.374601410    18.157968640    -3.247973721
 H      -11.994390154    17.242282299    -4.633163915
 H        2.270878918    -1.028286482    -0.019137305
 H        2.275867018     0.500636028     0.896251790
 H        2.268133443     0.530313180    -0.883875341
 H      -18.828499711     9.184283007   -18.757373937
 H      -18.842006903     8.203998189   -17.269938327
 H      -17.569615133     9.427171984   -17.523438905
 H      -21.831123423     9.167699263   -16.831583030
 H      -22.186741947    10.913883251   -16.849128261
 H      -21.667160351    10.097552599   -18.342832921
 H      -18.206464721    12.439682770   -17.204561924
 H      -19.384485332    12.289523727   -18.534264062
 H      -19.886001993    12.979514499   -16.968663527
 H      -15.065907167     8.342060409    -3.977435344
 H      -15.998924427     8.167258898    -2.471972640
 H      -16.539929290     7.338394312    -3.953871534
 H      -19.362326310    10.586832539    -3.303200185
 H      -19.367444305     8.814403955    -3.509373998
 H      -18.633913900     9.544310218    -2.058773509
 H       -4.658795724    12.431599106     3.235424524
 H       -3.010501317    13.105830649     3.313275998
 H       -4.361118619    14.116878963     2.740837132
 H       -2.134736961    13.291454705    -0.873773188
 H       -2.640632959    14.665470003     0.147508476
 H       -1.374020064    13.546682073     0.714563847
 H       -0.277677589    -0.425175164    -2.442963800
 H       -0.237436054    -1.952091637    -1.528222708
 H       -1.716899643    -0.962682549    -1.535340131
 H       -0.294346637    -0.337103675     2.454653606
 H       -1.744695457    -0.852935057     1.561196563
 H       -0.300028679    -1.896710234     1.591020662

