139   

Si        0.000000000     0.000000000     0.000000000
 C        1.869868115     0.000000000     0.000000000
 C       -0.629525368     1.735967130     0.000000000
 C        0.169030253     2.790623541    -0.454108498
 C       -0.313920965     4.098872111    -0.450827766
 C       -1.605621330     4.383371821    -0.000268693
 C       -2.405551454     3.325313314     0.451521412
 C       -1.925263551     2.018285959     0.452138109
 C       -2.149066454     5.737160799     0.019685352
 C       -1.481973760     6.832040623    -0.383669508
 C       -2.023233966     8.186773430    -0.364673436
 C       -1.218230252     9.241115901    -0.814736535
 C       -1.692682213    10.551097402    -0.814915870
 C       -2.991759196    10.832340517    -0.378467089
 C       -3.797634301     9.780288479     0.072485766
 C       -3.314544117     8.473199820     0.086858340
Si       -3.658421773    12.555694742    -0.363210188
 C       -5.472829163    12.369987735    -0.531790919
 C       -6.413360644    12.777540253     0.329444563
 C       -7.848497784    12.584687818     0.109557988
 C       -8.754638222    13.047922467     1.072203408
 C      -10.120953735    12.887696377     0.906879476
 C      -10.642140438    12.307143883    -0.266466827
 C       -9.732128870    11.845323887    -1.237718516
 C       -8.363538681    11.964653439    -1.032611756
 N      -12.029617640    12.142957618    -0.437511744
 C      -12.933966706    13.013757212     0.331248671
 C      -12.501542353    11.898986794    -1.811415969
 C      -12.871943035    14.491712034    -0.090944046
 C      -13.809708205    15.385872661     0.739310756
 N      -13.550006038    15.426685217     2.195726159
 C      -12.187338121    15.449054726     2.566933965
 C      -11.344624477    16.395176659     1.945120775
 C      -10.002140993    16.455381497     2.275975724
 C       -9.457338017    15.601653653     3.248032970
 C      -10.301207093    14.688202329     3.882765450
 C      -11.653786146    14.618174265     3.565558861
 C      -14.432450754    14.540024822     2.970888849
 C       -8.030549158    15.710585181     3.556785215
 C       -7.396260687    14.954119559     4.461933692
Si       -5.613239661    15.081019754     4.856577825
 C       -4.785509900    13.470124726     4.508682823
 C       -5.439069421    12.410009749     3.871250726
 C       -4.770500129    11.209923197     3.629776750
 C       -3.430161101    11.049110702     4.001722091
 C       -2.779722325    12.115463194     4.633286256
 C       -3.447225484    13.310763017     4.887619668
 C       -2.753549429     9.782051058     3.737311244
 C       -1.474711753     9.542333890     4.073172636
 C       -0.745018892     8.302848590     3.837252115
 C       -1.310148873     7.187758288     3.215395480
 C       -0.559035567     6.028389310     3.017721568
 C        0.768104711     5.955449983     3.452535614
 C        1.335970072     7.072855716     4.078048899
 C        0.589373118     8.232627683     4.261471119
Si        1.774546962     4.429680974     3.198663125
 C        0.654702604     2.936450168     3.192448627
 C        2.687500992     4.569986253     1.574453446
 C        3.011974247     4.244684408     4.591036397
 C       -4.786502810    16.392759008     3.813383814
 C       -5.447121718    15.493390126     6.670360783
 C       -3.137101406    13.440510346     1.186157381
 C       -3.037445797    13.499233587    -1.854386788
 C       -0.636883048    -0.864288548    -1.528078136
 C       -0.603596942    -0.881159007     1.534595525
 H        1.187771940     2.631346154    -0.818527195
 H        0.325576450     4.902990611    -0.812826099
 H       -3.415162091     3.524106975     0.806192383
 H       -2.594981791     1.234785770     0.816615889
 H       -3.174779281     5.813913435     0.390935608
 H       -0.454758371     6.755310991    -0.752994693
 H       -0.206918558     9.038893515    -1.161716442
 H       -1.017874730    11.334923778    -1.167738086
 H       -4.821005310     9.944650349     0.427680550
 H       -3.958059586     7.673042759     0.446773932
 H       -5.752534288    11.857963615    -1.468558013
 H       -6.176526362    13.292712617     1.269944189
 H       -8.384006699    13.538758250     1.976583940
 H      -10.787304227    13.235793788     1.692849208
 H      -10.085074481    11.378146960    -2.150692509
 H       -7.684060429    11.578239710    -1.794119320
 H      -13.602792923    11.870008578    -1.839315684
 H      -12.147533003    10.904628316    -2.141252105
 H      -12.155981072    12.657553480    -2.532595556
 H      -15.482080964    14.749302740     2.700128038
 H      -14.332503670    14.775951976     4.046198337
 H      -14.241401466    13.465645691     2.823936278
 H      -11.754113249    17.079242261     1.206203313
 H       -9.361124541    17.181625779     1.774527554
 H       -9.903671893    14.016567861     4.645698043
 H      -12.278019411    13.897035296     4.083418743
 H       -7.519333149    16.479907769     2.961776233
 H       -7.933161332    14.191435121     5.047855232
 H       -6.483319636    12.482389334     3.550246406
 H       -5.296689760    10.394432500     3.135557741
 H       -1.737978667    12.018645061     4.934740597
 H       -2.883996366    14.102626449     5.389078257
 H       -3.355524323     9.026226758     3.227640950
 H       -0.883688712    10.318489339     4.572739738
 H       -2.340824818     7.221012131     2.866565044
 H       -1.051027058     5.190818209     2.511279132
 H        2.368206522     7.075269914     4.437349484
 H        1.049249619     9.092917725     4.743615177
 H      -13.969502285    12.621041136     0.222084027
 H      -12.682025697    12.907587985     1.412683869
 H      -11.824320729    14.851768270    -0.008508430
 H      -13.128713928    14.591069276    -1.161915614
 H      -13.726617866    16.438093899     0.372546123
 H      -14.866459490    15.086607630     0.567768773
 H        2.268893134    -1.026210425     0.086293935
 H        2.269467840     0.584691400     0.848868039
 H        2.278857838     0.435224516    -0.928551469
 H        1.230026941     1.999366050     3.100444773
 H       -0.057602656     2.972984741     2.344960853
 H        0.059940700     2.875258502     4.120742075
 H        1.981830036     4.667035299     0.729764228
 H        3.346610654     5.455695228     1.559749492
 H        3.313216504     3.680174769     1.388694818
 H        2.508661800     4.253520985     5.574442138
 H        3.564118934     3.292233834     4.508898761
 H        3.755863005     5.059552351     4.589878285
 H       -4.880385091    16.168520000     2.734678480
 H       -5.230435824    17.388124137     3.990556482
 H       -3.708298250    16.465397434     4.041275479
 H       -5.879797754    14.699464340     7.305698484
 H       -4.389713829    15.611915598     6.964729751
 H       -5.969359711    16.435454054     6.916234472
 H       -3.464839621    12.894694031     2.093849806
 H       -2.038709855    13.536435964     1.248548044
 H       -3.568011470    14.455872230     1.239183818
 H       -3.255560268    12.960262826    -2.793157930
 H       -3.517298311    14.491890061    -1.922823533
 H       -1.946649013    13.659454572    -1.806346242
 H       -0.291951110    -0.359975186    -2.448823510
 H       -0.291416656    -1.912066859    -1.572174029
 H       -1.741310210    -0.875244328    -1.554267632
 H       -0.297760932    -0.343211322     2.450546048
 H       -1.704033383    -0.966723873     1.551559246
 H       -0.191965439    -1.904036167     1.596510544

