139   

Si        0.000000000     0.000000000     0.000000000
 C        1.866626682     0.000000000     0.000000000
 C       -0.624336660     1.736553369     0.000000000
 C        0.104546722     2.758787623     0.616110249
 C       -0.369509133     4.070735221     0.614775002
 C       -1.586715990     4.386717348     0.007947261
 C       -2.320016328     3.359897115    -0.602495416
 C       -1.847491547     2.050681951    -0.605622225
 C       -2.132066829     5.738358067    -0.024743890
 C       -1.555404929     6.829078371     0.507933590
 C       -2.142061693     8.164909165     0.449405126
 C       -3.369410013     8.406604809    -0.177682795
 C       -3.908882260     9.689649997    -0.220700527
 C       -3.232759599    10.763917283     0.370331376
 C       -2.005423241    10.528792923     0.999108997
 C       -1.466498486     9.242954066     1.034867140
Si       -3.997435381    12.438740562     0.280554472
 C       -2.828424894    13.690507936     0.925974923
 C       -3.054882884    14.497952319     1.970297727
 C       -2.093336695    15.489166073     2.458405097
 C       -2.438768229    16.282402958     3.563103992
 C       -1.562335138    17.233003480     4.060491606
 C       -0.280321566    17.383440010     3.492818981
 C        0.070445097    16.586928969     2.392513289
 C       -0.836247979    15.667467881     1.876765304
 N        0.579748350    18.371611873     4.038700470
 C        0.772197604    18.255763411     5.500869446
 C        1.849170498    18.594056433     3.325352449
 C        1.344795656    16.896333670     5.951348695
 C        0.624824199    16.396749422     7.218367003
 N        0.862963450    14.989900309     7.573677131
 C        0.079558258    14.003002500     6.914847591
 C       -0.690551791    14.248105038     5.769748806
 C       -1.429213654    13.224857659     5.186499545
 C       -1.464367753    11.946931161     5.754324560
 C       -0.714188231    11.713959560     6.914400548
 C        0.046483760    12.719107855     7.491428668
 C        2.294764378    14.649473068     7.671650292
 C       -2.254791348    10.892558789     5.110542834
 C       -2.338562811     9.646131192     5.592086273
Si       -3.280326767     8.235914921     4.899640528
 C       -2.007520914     6.944811668     4.546529149
 C       -0.778819133     7.328687690     3.992301431
 C        0.198830295     6.377308926     3.715797178
 C       -0.026338592     5.021267784     3.987975220
 C       -1.252798890     4.641796686     4.539111074
 C       -2.235726895     5.592580590     4.813999823
 C        1.026841585     4.058756494     3.681853576
 C        0.932704776     2.734824867     3.892138102
 C        1.982114937     1.768130987     3.588101893
 C        3.212029216     2.136624157     3.036976792
 C        4.186297775     1.176517568     2.762836216
 C        3.955965357    -0.172845012     3.046922134
 C        2.727907469    -0.543596350     3.611512988
 C        1.757383771     0.416586506     3.883221321
Si        5.224861940    -1.466985413     2.695956062
 C        6.635596502    -0.753241836     1.699630599
 C        5.871021119    -2.124765117     4.320468493
 C        4.423379205    -2.844451468     1.718025610
 C       -4.472090256     7.640622324     6.212069577
 C       -4.229697508     8.663370323     3.359936521
 C       -4.373072889    12.861884748    -1.499137913
 C       -5.571256493    12.410367607     1.287791596
 C       -0.601045975    -0.895591518    -1.529269452
 C       -0.647269741    -0.864456158     1.524585925
 H        1.060462999     2.569619652     1.116689464
 H        0.213139805     4.848151977     1.107590914
 H       -3.271651876     3.585297019    -1.079437613
 H       -2.462699367     1.293137400    -1.097524720
 H       -3.095143515     5.820138673    -0.540218981
 H       -0.601544459     6.760668258     1.038107311
 H       -3.915988146     7.587754358    -0.642406521
 H       -4.869270415     9.812812733    -0.729046354
 H       -1.438497376    11.331734200     1.481069278
 H       -0.509446234     9.077369891     1.527013723
 H       -1.882193349    13.741400192     0.362550747
 H       -3.987979267    14.476777717     2.548844655
 H       -3.416883682    16.162214420     4.030891647
 H       -1.865477914    17.868051206     4.889682882
 H        1.049883494    16.673058121     1.932173273
 H       -0.543773591    15.066843890     1.014089359
 H        2.352948902    19.476234547     3.757213019
 H        1.637818140    18.834329379     2.268189516
 H        2.544461526    17.741159397     3.367607792
 H        2.812814549    15.414991502     8.272687541
 H        2.793660184    14.568327509     6.692909931
 H        2.410924918    13.686229386     8.197894687
 H       -0.699128743    15.232321925     5.305619522
 H       -1.992050283    13.432884295     4.273089757
 H       -0.724824863    10.727625513     7.380453118
 H        0.609750694    12.521653433     8.400338872
 H       -2.768988488    11.218778636     4.197975202
 H       -1.800541481     9.364396476     6.514853457
 H       -0.547593988     8.376023805     3.769953724
 H        1.148935977     6.693508558     3.290407687
 H       -1.455202051     3.593842191     4.752138590
 H       -3.177434339     5.236146689     5.239425415
 H        1.937492884     4.493874782     3.260179445
 H        0.020017084     2.301687355     4.312790953
 H        3.419350268     3.181174913     2.811190505
 H        5.125854960     1.524096959     2.324930952
 H        2.492641898    -1.583042342     3.856824447
 H        0.813693836     0.111817347     4.333278417
 H        1.434560169    19.084493580     5.833120344
 H       -0.212162372    18.453526003     5.984052207
 H        1.242091618    16.144244068     5.143947834
 H        2.430073675    16.977303224     6.131564072
 H        0.946214397    17.005774240     8.096358493
 H       -0.476133799    16.548148187     7.127366540
 H        2.269939907    -1.023327839    -0.089986941
 H        2.268797242     0.429733532     0.938634544
 H        2.271349511     0.595384584    -0.836992839
 H        7.370464601    -1.534377598     1.434214545
 H        7.176190428     0.029170400     2.261138532
 H        6.276937578    -0.303753019     0.756229468
 H        6.346283323    -1.324529173     4.916458936
 H        5.059649794    -2.554086323     4.934816068
 H        6.625273086    -2.915760129     4.163413961
 H        4.021332092    -2.471262978     0.758336841
 H        5.147379473    -3.645373877     1.486427146
 H        3.585304473    -3.303253988     2.271472974
 H       -3.941470328     7.301754330     7.119211651
 H       -5.162558975     8.448369798     6.515175465
 H       -5.086877232     6.799410224     5.847450574
 H       -3.565096098     9.067285744     2.570108768
 H       -4.729790243     7.775048301     2.933470704
 H       -5.005538076     9.423419729     3.558366658
 H       -3.461595118    12.828168591    -2.123054444
 H       -5.100110302    12.157096366    -1.939062975
 H       -4.798013095    13.877937179    -1.587821499
 H       -5.366878981    12.171742916     2.347993620
 H       -6.088386666    13.385533687     1.255544518
 H       -6.275866637    11.648719897     0.909620303
 H       -0.296967047    -0.362968224    -2.448178663
 H       -0.182838036    -1.915988877    -1.582870340
 H       -1.700489480    -0.987780622    -1.545033204
 H       -0.310278145    -0.348686267     2.442307342
 H       -1.751037776    -0.881679975     1.539789377
 H       -0.292026317    -1.907991363     1.575295427

