139   

Si        0.000000000     0.000000000     0.000000000
 C        1.872407940     0.000000000     0.000000000
 C       -0.569752423     1.754980164     0.000000000
 C       -0.290997867     2.560524986     1.110808542
 C       -0.707160585     3.889040496     1.141933276
 C       -1.427173550     4.440878711     0.077032462
 C       -1.714811250     3.630705586    -1.027207276
 C       -1.292921254     2.302148021    -1.065312639
 C       -1.875449851     5.830919374     0.084303866
 C       -1.636805419     6.679753998     1.098097484
 C       -2.057398264     8.073430300     1.162231371
 C       -1.715445989     8.808785538     2.306847199
 C       -2.085389210    10.143304007     2.432864975
 C       -2.787547493    10.782651906     1.401709509
 C       -3.115922761    10.057814367     0.253559104
 C       -2.750400920     8.715361693     0.133674904
Si       -3.254800574    12.550168311     1.615863093
 C       -4.543417479    13.069360352     0.419488060
 C       -4.366975349    14.051589504    -0.473797698
 C       -5.372489812    14.493312722    -1.444061613
 C       -5.036670984    15.538970765    -2.317479916
 C       -5.945243015    16.001433045    -3.257753066
 C       -7.235476202    15.453328245    -3.307199059
 C       -7.587853351    14.427598419    -2.423734823
 C       -6.660009189    13.954522549    -1.500220915
 N       -8.104607107    15.998174602    -4.316000467
 C       -8.042506163    15.241681119    -5.585467496
 C       -9.482693060    16.218355119    -3.838877548
 C       -8.708746697    13.854402311    -5.547425511
 C       -7.895516608    12.740440429    -6.231088458
 N       -6.727839240    12.212395085    -5.512155031
 C       -6.910127628    11.539328077    -4.291638424
 C       -8.176256202    11.321244263    -3.716771943
 C       -8.291818046    10.648870446    -2.507401720
 C       -7.181030006    10.058612072    -1.895452501
 C       -5.926611450    10.235438851    -2.491809473
 C       -5.783277973    10.973170584    -3.655231373
 C       -5.526350499    13.063103937    -5.589500683
 C       -7.359115262     9.361956618    -0.620760833
 C       -6.368487269     8.762407264     0.051885027
Si       -6.551553995     7.882383087     1.646550333
 C       -6.025917897     6.132929721     1.388533739
 C       -6.157476680     5.568258399     0.114251101
 C       -5.771395533     4.250299531    -0.119307638
 C       -5.252965235     3.464921565     0.914369314
 C       -5.120008337     4.032999252     2.187732126
 C       -5.496112304     5.354400557     2.422696885
 C       -4.838051494     2.080989055     0.707784383
 C       -4.919225841     1.433828518    -0.467361618
 C       -4.508579083     0.051888190    -0.688031305
 C       -3.979317507    -0.747233182     0.327974442
 C       -3.598746760    -2.065139447     0.074230491
 C       -3.739276891    -2.613185807    -1.204394679
 C       -4.268237013    -1.813185984    -2.226183242
 C       -4.645826071    -0.497876703    -1.970044085
Si       -3.240708808    -4.355556554    -1.557825306
 C       -2.133353640    -4.998741373    -0.195250333
 C       -4.781098478    -5.405550526    -1.671867267
 C       -2.303579859    -4.411153006    -3.175022353
 C       -5.468420504     8.718498061     2.913797501
 C       -8.325698061     7.885087254     2.233466886
 C       -3.981465904    12.787655067     3.323538379
 C       -1.706138213    13.579191379     1.431061561
 C       -0.608710206    -0.884137614    -1.524656322
 C       -0.604164435    -0.858287030     1.546588230
 H        0.259725109     2.185172067     1.977466695
 H       -0.472038490     4.495410142     2.014864471
 H       -2.280485357     4.036538643    -1.863593733
 H       -1.553675217     1.714266486    -1.949676186
 H       -2.438222228     6.145787080    -0.797696948
 H       -1.081695605     6.339042454     1.978919358
 H       -1.161997036     8.328707497     3.111421102
 H       -1.800623825    10.660545616     3.353121423
 H       -3.656403466    10.518912904    -0.580110755
 H       -3.011190687     8.166175082    -0.769713124
 H       -5.490117783    12.509426502     0.483390267
 H       -3.426995265    14.615928525    -0.554384016
 H       -4.044915967    15.987788533    -2.268205852
 H       -5.680136419    16.803705580    -3.945097352
 H       -8.584046057    13.992761352    -2.449374293
 H       -6.944653503    13.142944407    -0.828034896
 H      -10.023691453    16.811571279    -4.595573715
 H       -9.447724312    16.817461573    -2.911864180
 H      -10.057981479    15.302924380    -3.637659682
 H       -5.516830428    13.639620320    -6.527650341
 H       -4.626624378    12.421376768    -5.599837807
 H       -5.444274677    13.766950725    -4.741168420
 H       -9.077510605    11.681578623    -4.200714129
 H       -9.277706724    10.547575564    -2.052488501
 H       -5.041298049     9.788089035    -2.036556367
 H       -4.793536291    11.103573548    -4.083912930
 H       -8.395834616     9.378512302    -0.260842575
 H       -5.336260800     8.757328545    -0.333655081
 H       -6.557102357     6.133951667    -0.734320613
 H       -5.877457826     3.835967363    -1.119974483
 H       -4.707667183     3.441231404     3.002380538
 H       -5.356201792     5.750286792     3.431598015
 H       -4.432352824     1.585081953     1.594001902
 H       -5.317723022     1.937439516    -1.352971403
 H       -3.868057778    -0.343339064     1.333451777
 H       -3.192551839    -2.641832714     0.910014093
 H       -4.401800093    -2.187531071    -3.244539239
 H       -5.054474691     0.108026300    -2.776369412
 H       -8.523443772    15.876783724    -6.363165152
 H       -6.972298635    15.164650901    -5.875180494
 H       -8.903085071    13.571001385    -4.493583840
 H       -9.706373250    13.909606139    -6.021899307
 H       -8.569709628    11.870721898    -6.431326191
 H       -7.549306045    13.086486165    -7.232330855
 H        2.273915587    -1.027809615     0.013448892
 H        2.276609365     0.530020449     0.879733990
 H        2.270931587     0.502938623    -0.899318403
 H       -1.760654837    -6.011770780    -0.429074593
 H       -2.667051309    -5.058997899     0.769468899
 H       -1.253149517    -4.345736415    -0.052582578
 H       -5.356789045    -5.377506921    -0.728949395
 H       -5.451379194    -5.052244605    -2.475770708
 H       -4.535351980    -6.461269896    -1.881613853
 H       -1.418492531    -3.749715031    -3.146787631
 H       -1.948804636    -5.432943341    -3.397213785
 H       -2.931910830    -4.087377998    -4.022912545
 H       -4.406270761     8.711617873     2.594894201
 H       -5.759875676     9.774222380     3.056573077
 H       -5.523863131     8.218850348     3.895230776
 H       -8.992927002     7.393886191     1.502842166
 H       -8.430026727     7.340801188     3.189005134
 H       -8.696585313     8.912620537     2.392533960
 H       -4.856575258    12.131314388     3.481182844
 H       -3.247021321    12.560033633     4.114845625
 H       -4.317769335    13.829748251     3.471180098
 H       -1.266022785    13.467657746     0.423531807
 H       -1.910293595    14.652123901     1.593606182
 H       -0.934061795    13.273910720     2.159805359
 H       -0.227261805    -0.415050015    -2.448116641
 H       -0.289263614    -1.940682756    -1.532491492
 H       -1.715844035    -0.871393774    -1.576599394
 H       -0.155800129    -0.417656224     2.453778846
 H       -1.701166216    -0.777415895     1.646267635
 H       -0.347180504    -1.931747052     1.531989063

