139   

Si        0.000000000     0.000000000     0.000000000
 C        1.869436675     0.000000000     0.000000000
 C       -0.640165166     1.731757264     0.000000000
 C        0.128425482     2.781450868     0.514025948
 C       -0.360763486     4.087355383     0.511161460
 C       -1.631108492     4.373428228     0.003661999
 C       -2.401893349     3.320140343    -0.505798176
 C       -1.914601268     2.015541365    -0.507403547
 C       -2.183643926     5.723941994    -0.019622554
 C       -1.547664408     6.817618227     0.433641969
 C       -2.098432275     8.168863032     0.411245384
 C       -3.368673502     8.457220702    -0.095840899
 C       -3.855536577     9.764005159    -0.097550142
 C       -3.075625187    10.812483609     0.400717462
 C       -1.801880975    10.527809323     0.908669905
 C       -1.322207972     9.220550522     0.916188610
Si       -3.706878146    12.546504279     0.404759750
 C       -2.266816611    13.677135316     0.341350590
 C       -1.959539772    14.595812896     1.266554304
 C       -0.799769858    15.485685421     1.186810571
 C       -0.580458043    16.409727801     2.219025824
 C        0.501566444    17.273715083     2.191420635
 C        1.440233953    17.210816230     1.137871826
 C        1.221236088    16.283404618     0.101588348
 C        0.106356840    15.454884997     0.123715824
 N        2.531921766    18.094327389     1.124984485
 C        3.097313240    18.497370719     2.425189178
 C        3.532921710    17.910041244     0.064168873
 C        3.549670143    17.337321466     3.328489582
 C        4.947369294    16.791532515     2.989108362
 N        6.072575755    17.550963932     3.562590756
 C        6.099912180    17.719400619     4.956744230
 C        5.569730729    16.714388121     5.795397178
 C        5.589824052    16.866715002     7.171675568
 C        6.176751333    17.991446872     7.770167002
 C        6.728181289    18.970229222     6.939738248
 C        6.701158326    18.842592134     5.556508361
 C        6.512386420    18.687361780     2.739994350
 C        6.168299344    18.098499906     9.229635476
 C        6.695298701    19.120963647     9.916770338
Si        6.683290710    19.252324982    11.743330397
 C        5.841700487    17.771288028    12.453983780
 C        4.472432263    17.794103377    12.739134020
 C        3.840817699    16.672743031    13.276004155
 C        4.558463687    15.499810448    13.526019912
 C        5.928105598    15.476010365    13.231477076
 C        6.562819708    16.596168951    12.700835129
 C        3.940094508    14.302806803    14.086481060
 C        2.640933361    14.193830038    14.412429537
 C        2.023119121    12.996421171    14.972911358
 C        2.742552848    11.825664931    15.228158299
 C        2.111509295    10.703982154    15.764763371
 C        0.745673253    10.731120352    16.066441873
 C        0.022708573    11.903363113    15.812085994
 C        0.653887105    13.019778661    15.268976116
Si       -0.092411085     9.247091747    16.777117385
 C        1.123088110     8.242195254    17.780951441
 C       -1.500620551     9.777752180    17.886262740
 C       -0.752273988     8.215141475    15.366270974
 C        8.445441885    19.345729646    12.358413599
 C        5.775792280    20.811425672    12.231682667
 C       -4.756853026    12.861424569    -1.108132173
 C       -4.723327389    12.803822161     1.949435163
 C       -0.603815891    -0.898750253    -1.524099274
 C       -0.631612871    -0.858538653     1.534686804
 H        1.128410560     2.620351976     0.926291927
 H        0.260424184     4.886679644     0.911764901
 H       -3.394084209     3.520697363    -0.906017727
 H       -2.561245579     1.236217016    -0.919926844
 H       -3.188539786     5.799970391    -0.445115282
 H       -0.542738890     6.741105866     0.859662279
 H       -3.991620532     7.658599540    -0.494139739
 H       -4.856888087     9.927971858    -0.504636614
 H       -1.149252557    11.310748254     1.309629630
 H       -0.331012634     9.017149153     1.317557919
 H       -1.642777708    13.543875912    -0.557098200
 H       -2.563425425    14.753021224     2.170236536
 H       -1.279393640    16.459633235     3.054984189
 H        0.622575856    18.000988485     2.989540495
 H        1.912284730    16.204887470    -0.730982424
 H       -0.047334610    14.756183358    -0.700651277
 H        4.331746300    18.663652004     0.161217949
 H        3.051526626    18.082384230    -0.917311383
 H        3.993356872    16.908312519     0.058966715
 H        6.432695892    18.436063145     1.669647956
 H        7.582991042    18.882534650     2.941297181
 H        5.944771766    19.613830339     2.926815454
 H        5.137459804    15.814534152     5.366717930
 H        5.153446829    16.088445317     7.800296726
 H        7.191970046    19.854944570     7.378384725
 H        7.141221111    19.628162686     4.951862247
 H        5.679556825    17.243998685     9.721046627
 H        7.180783618    19.965455226     9.405465789
 H        3.856779895    18.680289072    12.560187177
 H        2.775967874    16.718885294    13.496747172
 H        6.505504303    14.572440904    13.418215313
 H        7.633659704    16.517930718    12.491267017
 H        4.623401160    13.461099606    14.233465269
 H        1.957039136    15.035081054    14.265649708
 H        3.807556070    11.780016634    15.007356839
 H        2.726947799     9.817157635    15.940099204
 H       -1.046374147    11.983446412    16.027612828
 H        0.073844283    13.920490552    15.076282572
 H        3.938379091    19.201646361     2.244368160
 H        2.319890577    19.100891466     2.953564125
 H        3.525349813    17.669118772     4.387093577
 H        2.812048187    16.510507737     3.272165982
 H        5.036047715    15.738969454     3.352744892
 H        5.085062787    16.729921822     1.887596830
 H        2.267942865    -1.028799374    -0.054661651
 H        2.279623028     0.463733901     0.914188698
 H        2.269541221     0.557028240    -0.866512663
 H        0.627211366     7.379833619    18.261135186
 H        1.579695470     8.850930040    18.582395991
 H        1.941772358     7.845041602    17.155759445
 H       -1.149401099    10.462895844    18.679087867
 H       -2.293071431    10.299306677    17.321644132
 H       -1.967219234     8.908191949    18.382552637
 H        0.059934523     7.887790875    14.692445155
 H       -1.265571081     7.309809578    15.735183072
 H       -1.475814789     8.784329898    14.755269117
 H        9.047192871    18.490373912    12.002441045
 H        8.944709823    20.266679535    12.008558791
 H        8.482914052    19.344823109    13.462642528
 H        4.761453192    20.846117891    11.795573945
 H        5.672109442    20.885399382    13.329164670
 H        6.312175741    21.713050619    11.886438994
 H       -4.207282205    12.624602316    -2.037066848
 H       -5.677011890    12.251824615    -1.099676130
 H       -5.061734507    13.922350374    -1.166090963
 H       -4.121867055    12.632072021     2.860776184
 H       -5.126896961    13.830709539     2.000304985
 H       -5.579655660    12.106654805     1.986671421
 H       -0.310918229    -0.364063540    -2.445908273
 H       -0.179090708    -1.916727418    -1.581819739
 H       -1.703184389    -0.998695719    -1.532779142
 H       -0.285156798    -0.349060430     2.451986852
 H       -1.736037263    -0.870442251     1.563169253
 H       -0.284509376    -1.905572010     1.582601480

