139   

Si        0.000000000     0.000000000     0.000000000
 C        1.869495356     0.000000000     0.000000000
 C       -0.641152405     1.731694447     0.000000000
 C        0.156077044     2.795489669    -0.434523423
 C       -0.336971251     4.100000504    -0.430853879
 C       -1.638188970     4.370776268     0.000901837
 C       -2.437430997     3.303386429     0.431254987
 C       -1.947457455     1.999920131     0.429523969
 C       -2.194927215     5.719519512     0.021582171
 C       -1.533195171     6.823865594    -0.363255630
 C       -2.086009140     8.173811877    -0.344146146
 C       -3.387151445     8.450565425     0.086787045
 C       -3.874589678     9.756994557     0.088184529
 C       -3.065199502    10.816060020    -0.335883871
 C       -1.761974740    10.541945574    -0.767959057
 C       -1.280155697     9.235606793    -0.775062086
Si       -3.700120017    12.549378714    -0.338192792
 C       -2.276360594    13.661410097    -0.626926675
 C       -2.160466487    14.507297958    -1.658788469
 C       -1.009744097    15.387981098    -1.868000035
 C       -1.004257405    16.231926096    -2.989993786
 C        0.059447178    17.083457309    -3.233371567
 C        1.168622910    17.095423224    -2.363903401
 C        1.165888879    16.258127380    -1.239610959
 C        0.076636331    15.428229886    -0.992749306
 N        2.226069644    17.993716464    -2.672236036
 C        2.891308525    17.738143007    -3.964793606
 C        3.165762685    18.277396772    -1.575709248
 C        3.922557421    16.591257874    -3.982240710
 C        3.271197685    15.199722926    -3.876162617
 N        2.347316091    14.962873927    -5.006634840
 C        1.367206152    13.947648465    -4.793780749
 C        1.411729625    13.022416873    -3.740852474
 C        0.410701608    12.066002645    -3.611494362
 C       -0.670200115    12.023556494    -4.499496221
 C       -0.721953383    12.967524720    -5.532572470
 C        0.271875262    13.923929965    -5.676693117
 C        3.063546583    14.789637484    -6.289150528
 C       -1.699785993    10.995246192    -4.320151923
 C       -2.772896175    10.865320436    -5.110651790
Si       -4.088480979     9.600523055    -4.932503171
 C       -4.120987162     8.605151833    -6.487950348
 C       -2.967358436     8.487039182    -7.273134074
 C       -2.986534713     7.737810717    -8.446684513
 C       -4.153848260     7.082314911    -8.859798616
 C       -5.301927802     7.197786906    -8.070807321
 C       -5.286822394     7.949683581    -6.896505316
 C       -4.124559277     6.309074989   -10.097135160
 C       -5.172247309     5.637718326   -10.604516217
 C       -5.143235258     4.864466531   -11.841725221
 C       -3.996908252     4.747727793   -12.631792351
 C       -4.014383429     3.997577118   -13.807938333
 C       -5.181008445     3.346951625   -14.219163675
 C       -6.333040430     3.462292529   -13.428994477
 C       -6.312598029     4.212027694   -12.256308942
Si       -5.237637747     2.346924580   -15.769459743
 C       -3.561291138     2.301581231   -16.595038997
 C       -5.760139343     0.603808001   -15.342412051
 C       -6.478776785     3.120416426   -16.933401464
 C       -3.762029052     8.450894280    -3.504819017
 C       -5.724852324    10.471270925    -4.698247358
 C       -4.987114253    12.738234288    -1.675139808
 C       -4.440840115    12.949412768     1.329319993
 C       -0.630622255    -0.859845265    -1.533969837
 C       -0.605503705    -0.893996412     1.526088874
 H        1.181346137     2.646967256    -0.784724520
 H        0.305448849     4.910065961    -0.771736015
 H       -3.454421838     3.491941893     0.770469704
 H       -2.617888896     1.208477279     0.775907563
 H       -3.225545455     5.784047951     0.382766162
 H       -0.502859066     6.757064387    -0.725345001
 H       -4.032466010     7.642989374     0.426699374
 H       -4.900187781     9.912635936     0.433125552
 H       -1.088286545    11.335524980    -1.112173035
 H       -0.265038329     9.039960522    -1.115699621
 H       -1.492855821    13.592069506     0.144252051
 H       -2.922836020    14.598228888    -2.444229493
 H       -1.846177623    16.216228629    -3.682241800
 H        0.048722517    17.741079099    -4.100316242
 H        2.006013235    16.248451227    -0.553049858
 H        0.089226268    14.789636437    -0.108890334
 H        3.838681768    19.094975364    -1.886059493
 H        3.781337570    17.419092862    -1.265414228
 H        2.596696614    18.637584098    -0.699912588
 H        3.587847885    15.727883352    -6.535336252
 H        2.346296366    14.595272606    -7.103729113
 H        3.795284627    13.966799446    -6.272732022
 H        2.233996882    13.025332764    -3.032066329
 H        0.472272183    11.343131436    -2.797583869
 H       -1.558614120    12.963111749    -6.231688698
 H        0.205879067    14.667781064    -6.467850169
 H       -1.512650994    10.336005409    -3.460401303
 H       -2.937115742    11.546327931    -5.961557758
 H       -2.026521510     8.975279236    -6.997533099
 H       -2.081780505     7.660221173    -9.046596015
 H       -6.221496896     6.697783112    -8.368639489
 H       -6.214928541     8.003328993    -6.321234577
 H       -3.158882881     6.305827866   -10.611370410
 H       -6.137615961     5.640618123   -10.089895653
 H       -3.075096884     5.244199639   -12.333576402
 H       -3.086167987     3.943175779   -14.383173607
 H       -7.273825521     2.975636642   -13.700928355
 H       -7.216902255     4.290397903   -11.655531627
 H        2.108397237    17.529667596    -4.733690483
 H        3.387473577    18.688691525    -4.265457350
 H        4.518595847    16.663628146    -4.911129404
 H        4.645681880    16.710858332    -3.154518168
 H        4.063202638    14.422507974    -3.808532811
 H        2.683883797    15.153345677    -2.927635359
 H        2.267998557    -1.028095501     0.067690938
 H        2.270630672     0.567824501     0.858816052
 H        2.278655439     0.451130802    -0.921037344
 H       -3.592012721     1.706126769   -17.525051719
 H       -2.798267291     1.847621365   -15.937840531
 H       -3.214253069     3.315070409   -16.864171636
 H       -5.052487537     0.136952105   -14.633258076
 H       -6.759206719     0.583089417   -14.872459706
 H       -5.800796240    -0.035568982   -16.241625681
 H       -6.189269205     4.153994916   -17.196896811
 H       -6.560592548     2.547302452   -17.873503233
 H       -7.485154448     3.166009792   -16.480903222
 H       -2.820799847     7.887049705    -3.642582094
 H       -3.675879146     9.005914544    -2.549373301
 H       -4.571488592     7.709467966    -3.384941576
 H       -5.962657024    11.123223424    -5.557180368
 H       -6.553021759     9.750187169    -4.586274709
 H       -5.713415040    11.103641978    -3.791816071
 H       -4.528343045    12.643551974    -2.678345582
 H       -5.774671869    11.969200909    -1.590745386
 H       -5.477532167    13.726532801    -1.624662767
 H       -3.709181312    12.797952104     2.143323436
 H       -4.772627360    14.002493344     1.375695644
 H       -5.316379565    12.314178161     1.548687305
 H       -0.286276565    -0.348951936    -2.451518386
 H       -0.280552124    -1.905858887    -1.582655805
 H       -1.735050936    -0.874809824    -1.562114110
 H       -0.294396215    -0.367782372     2.446839098
 H       -1.706392265    -0.973753856     1.544978917
 H       -0.198620773    -1.919580468     1.576457406

