139   

Si        0.000000000     0.000000000     0.000000000
 C        1.869476144     0.000000000     0.000000000
 C       -0.637790929     1.732554412     0.000000000
 C        0.096672466     2.762835244    -0.597057902
 C       -0.385749474     4.071136770    -0.596624894
 C       -1.615545016     4.379139063    -0.008166095
 C       -2.352277428     3.345278238     0.584485029
 C       -1.871482659     2.038184043     0.588300909
 C       -2.159692529     5.733040804     0.015954415
 C       -1.553610722     6.809798287    -0.512432211
 C       -2.096275372     8.164310577    -0.489211778
 C       -3.326063718     8.473713966     0.098971374
 C       -3.806751873     9.782687867     0.098360049
 C       -3.060705441    10.812566591    -0.483606725
 C       -1.828017172    10.506624676    -1.073260241
 C       -1.354986587     9.196869938    -1.078639177
Si       -3.686387241    12.547289309    -0.490288429
 C       -2.257561868    13.681350672    -0.642087576
 C       -2.070470975    14.557809394    -1.637676934
 C       -0.916426057    15.453171055    -1.732664493
 C       -0.828234733    16.330569702    -2.824218130
 C        0.242403152    17.197055120    -2.960371075
 C        1.262699236    17.230324266    -1.983674595
 C        1.182721181    16.341071618    -0.897422863
 C        0.118854421    15.452368769    -0.795811777
 N        2.336262753    18.123119524    -2.153627384
 C        2.011947801    19.479464252    -2.639941061
 C        3.403734724    18.100668805    -1.143113990
 C        0.765281352    20.145406351    -2.032610448
 C        0.940343140    20.665127991    -0.592403742
 N        0.141242749    19.983919875     0.448982359
 C       -1.150916083    19.552547764     0.084763908
 C       -1.981925539    20.445819921    -0.623941915
 C       -3.257662970    20.060577495    -1.000005750
 C       -3.762275674    18.795088142    -0.664207463
 C       -2.944965188    17.921804754     0.057262483
 C       -1.660015470    18.291008190     0.437356097
 C        0.915395057    19.081148049     1.312113325
 C       -5.118156745    18.448271818    -1.091158666
 C       -5.722973629    17.279177917    -0.840032979
Si       -7.423225803    16.879476571    -1.390745833
 C       -8.116091193    18.320170105    -2.313219895
 C       -8.855917014    19.308263034    -1.652585999
 C       -9.374790985    20.391824936    -2.357326551
 C       -9.157347051    20.521844894    -3.735172373
 C       -8.411982557    19.537739410    -4.390819281
 C       -7.895529398    18.449470080    -3.689016658
 C       -9.721186407    21.674545898    -4.430054750
 C       -9.590079526    21.913069681    -5.746038076
 C      -10.153339437    23.065266854    -6.442192072
 C      -10.898951151    24.050673919    -5.789172168
 C      -11.418785022    25.135554885    -6.494412466
 C      -11.196692082    25.263767245    -7.869677085
 C      -10.449460559    24.277761026    -8.526166870
 C       -9.938226479    23.191091365    -7.820952210
Si      -11.883314957    26.698774711    -8.806979411
 C      -12.043544994    28.183915775    -7.682737321
 C      -10.749382110    27.135375864   -10.227888429
 C      -13.565441454    26.219043461    -9.463908741
 C       -7.393898935    15.378110510    -2.503209620
 C       -8.465256919    16.502502029     0.114424914
 C       -4.837168924    12.725181664    -1.950372841
 C       -4.590339525    12.956340274     1.091732126
 C       -0.631143226    -0.856274273    -1.536310113
 C       -0.603943150    -0.903518825     1.521364079
 H        1.064146232     2.584457707    -1.074562060
 H        0.207706632     4.855160475    -1.063878702
 H       -3.312693197     3.562841473     1.048331951
 H       -2.490310290     1.274550793     1.067439757
 H       -3.131446561     5.826718586     0.509597351
 H       -0.581997822     6.715468387    -1.006669063
 H       -3.921770297     7.689940415     0.563145932
 H       -4.775830404     9.963472579     0.571057831
 H       -1.203261385    11.274204663    -1.542802039
 H       -0.396119549     8.976650783    -1.544607285
 H       -1.530420921    13.588709977     0.180278194
 H       -2.780243406    14.678829070    -2.467271619
 H       -1.617319295    16.335765838    -3.577812484
 H        0.302394472    17.846550517    -3.829558212
 H        1.956733736    16.319570723    -0.137449399
 H        0.091008866    14.758260685     0.046110907
 H        4.258180448    18.700097326    -1.503367014
 H        3.775939431    17.066566103    -1.023812652
 H        3.097386234    18.486314987    -0.158663775
 H        1.842048321    19.583132301     1.635691235
 H        1.173610933    18.121393850     0.835148920
 H        0.331061338    18.871930685     2.228151536
 H       -1.617984127    21.438420213    -0.873209917
 H       -3.882012163    20.758977888    -1.558658687
 H       -3.307821951    16.926774099     0.321589948
 H       -1.046622614    17.573216139     0.973961808
 H       -5.608858407    19.258066789    -1.652342866
 H       -5.218689136    16.478318652    -0.279024687
 H       -9.053593925    19.263235621    -0.577711847
 H       -9.953314410    21.146509641    -1.827688852
 H       -8.228236201    19.614464572    -5.460871900
 H       -7.320614228    17.711994415    -4.256668938
 H      -10.281871821    22.364211155    -3.792144683
 H       -9.030246620    21.222755730    -6.384058004
 H      -11.081860760    23.977377524    -4.718541866
 H      -11.995814322    25.872408961    -5.928680827
 H      -10.243542016    24.324523872    -9.599110324
 H       -9.362716727    22.433506071    -8.349778613
 H        2.898408511    20.136373653    -2.502728610
 H        1.869746598    19.390450711    -3.746138987
 H        0.465415182    20.987483679    -2.687256995
 H       -0.094973801    19.443260847    -2.085031457
 H        2.012506279    20.641728551    -0.303698623
 H        0.638812952    21.740843242    -0.551784697
 H        2.268030798    -1.028339774     0.061379579
 H        2.269564465     0.563126333     0.862635416
 H        2.279529827     0.458274025    -0.916912234
 H      -12.392463029    29.070813364    -8.241133310
 H      -11.073427206    28.442882932    -7.221171923
 H      -12.764583078    28.004087057    -6.866260799
 H       -9.725272442    27.347949990    -9.871115584
 H      -10.682484069    26.316801212   -10.965554700
 H      -11.107261012    28.032989404   -10.762910846
 H      -14.259106213    25.961179699    -8.643410566
 H      -14.022068618    27.041745055   -10.041593083
 H      -13.501538967    25.338770210   -10.128576305
 H       -6.626863066    15.467879678    -3.292556591
 H       -7.181510295    14.457633206    -1.929585121
 H       -8.370609552    15.237111542    -3.000441055
 H       -8.435864510    17.329190167     0.846687839
 H       -9.521729636    16.337467159    -0.162524362
 H       -8.110018063    15.593178029     0.630927268
 H       -4.356147057    12.372505981    -2.881086310
 H       -5.758254753    12.132484444    -1.813257979
 H       -5.130024320    13.779858107    -2.104490991
 H       -3.943673086    12.810587516     1.975639388
 H       -4.926548110    14.009918626     1.096564857
 H       -5.483966878    12.322610309     1.225189401
 H       -0.285939712    -0.344381907    -2.452630905
 H       -0.282554150    -1.902707345    -1.586254750
 H       -1.735595331    -0.869779688    -1.564093076
 H       -0.312629024    -0.370499266     2.444597370
 H       -1.703099394    -1.006135595     1.527965184
 H       -0.177395323    -1.920864003     1.577094720

