139   

Si        0.000000000     0.000000000     0.000000000
 C        1.869443048     0.000000000     0.000000000
 C       -0.641528990     1.731159817     0.000000000
 C        0.120085831     2.778274841    -0.529341624
 C       -0.369408869     4.084150734    -0.526778655
 C       -1.632924365     4.372516660    -0.003742855
 C       -2.396789400     3.321568790     0.521024564
 C       -1.909367560     2.017091862     0.522363491
 C       -2.186269750     5.722649969     0.020277969
 C       -1.558158632     6.815049270    -0.446762802
 C       -2.111394228     8.165309565    -0.422812898
 C       -3.375525007     8.452388436     0.100716754
 C       -3.865837621     9.757567486     0.103766320
 C       -3.096480868    10.805989659    -0.411846028
 C       -1.829958226    10.522523335    -0.936926848
 C       -1.346189447     9.216488068    -0.944523131
Si       -3.744067840    12.533971581    -0.408502778
 C       -2.330076934    13.684971839    -0.587396464
 C       -2.165996547    14.564221270    -1.584594748
 C       -1.023535312    15.472309863    -1.700478993
 C       -0.962260716    16.350278421    -2.792574381
 C        0.096615681    17.229124788    -2.948685839
 C        1.168307990    17.228231574    -2.028759000
 C        1.107990181    16.347121468    -0.932579217
 C        0.016850646    15.503002055    -0.768314848
 N        2.233927326    18.126955777    -2.203154165
 C        2.622669465    18.459795828    -3.585376056
 C        3.364448891    18.017222899    -1.269842077
 C        2.987843887    17.254181569    -4.468714585
 C        4.433973450    16.763474648    -4.281771486
 N        5.446138115    17.492164877    -5.066149170
 C        5.292556403    17.521775559    -6.461345794
 C        4.695003874    16.428436222    -7.126219550
 C        4.537568473    16.445028257    -8.502182671
 C        5.005203297    17.517665917    -9.275084600
 C        5.623255243    18.585159977    -8.618358163
 C        5.775122820    18.593079361    -7.237789111
 C        5.942899339    18.714861552    -4.418307185
 C        4.812293581    17.483675053   -10.725777070
 C        5.216644575    18.449701234   -11.561057884
Si        4.994692644    18.445057638   -13.379443742
 C        3.988211102    19.919081391   -13.848346159
 C        3.177846359    20.556356124   -12.900888277
 C        2.418886478    21.668674820   -13.256399113
 C        2.445577693    22.166240082   -14.565791617
 C        3.252300861    21.524525934   -15.510095222
 C        4.015129474    20.412033990   -15.157150519
 C        1.632830500    23.334303650   -14.889637439
 C        1.570184914    23.910111162   -16.102310969
 C        0.757488577    25.078139468   -16.426229013
 C       -0.049431182    25.720642255   -15.483241157
 C       -0.810193819    26.834630282   -15.836827040
 C       -0.772777802    27.337717983   -17.141447331
 C        0.035920945    26.696072323   -18.088266378
 C        0.787629994    25.578362356   -17.734746759
Si       -1.776593165    28.812063099   -17.618553387
 C       -2.141796880    29.860791211   -16.114524316
 C       -0.834641662    29.844267407   -18.860614463
 C       -3.377118472    28.213352736   -18.374158961
 C        6.685725680    18.544715100   -14.167745029
 C        4.107504902    16.910107881   -13.964264947
 C       -4.962877307    12.713061742    -1.811393229
 C       -4.585110126    12.900200107     1.219177752
 C       -0.630514800    -0.858966188    -1.534958375
 C       -0.603412779    -0.899856908     1.523748920
 H        1.114653852     2.615361947    -0.953786336
 H        0.245798160     4.881647736    -0.939815100
 H       -3.383668325     3.523947398     0.933366446
 H       -2.550435983     1.239584064     0.946940761
 H       -3.185527292     5.799512427     0.459008506
 H       -0.559154389     6.738078375    -0.886077410
 H       -3.990297371     7.653655151     0.511476987
 H       -4.861933922     9.920360652     0.524305603
 H       -1.187155698    11.304682366    -1.354471203
 H       -0.360601560     9.013989995    -1.359710481
 H       -1.590463141    13.602962414     0.225562911
 H       -2.887135439    14.670547713    -2.406035614
 H       -1.767037230    16.351682732    -3.528893640
 H        0.095581593    17.920652508    -3.786742367
 H        1.905719278    16.316519088    -0.197911221
 H       -0.012073748    14.841832356     0.099678584
 H        4.121411637    18.785036621    -1.500414662
 H        3.852050500    17.028561517    -1.277929975
 H        3.004771052    18.224913818    -0.244013642
 H        6.011747444    18.566734171    -3.328015902
 H        5.319006424    19.602581928    -4.613858592
 H        6.970092786    18.919237961    -4.775961113
 H        4.348963177    15.566607485    -6.562452563
 H        4.053282752    15.599011107    -8.991662342
 H        5.998130358    19.433061472    -9.194602206
 H        6.261794416    19.443311716    -6.771666881
 H        4.295744723    16.578453711   -11.071861638
 H        5.736682908    19.345520160   -11.184556154
 H        3.115991286    20.209269693   -11.864087423
 H        1.797219226    22.153593466   -12.505926223
 H        3.290639222    21.890881226   -16.534284609
 H        4.627273574    19.953078445   -15.938275037
 H        1.051015703    23.732724399   -14.053146181
 H        2.151379945    23.511521136   -16.939112280
 H       -0.091846869    25.352806701   -14.459572622
 H       -1.424178601    27.292085175   -15.056037882
 H        0.105135891    27.043803440   -19.122728032
 H        1.407443544    25.091631741   -18.485585342
 H        1.770919267    19.016232750    -4.046258259
 H        3.462219674    19.187956027    -3.552725716
 H        2.288406336    16.417411516    -4.265642097
 H        2.817184036    17.515532622    -5.533185602
 H        4.723963707    16.800105098    -3.208870054
 H        4.503232140    15.685177748    -4.564253307
 H        2.267594904    -1.027522380     0.077073371
 H        2.270022877     0.575809386     0.853941712
 H        2.279296768     0.443575137    -0.924256278
 H       -2.676780200    30.785903674   -16.394044574
 H       -1.211057678    30.158969326   -15.598772607
 H       -2.772138921    29.323985653   -15.384145645
 H        0.149855832    30.148813282   -18.461167927
 H       -0.656268843    29.293592796   -19.800610809
 H       -1.388556769    30.764745078   -19.116985109
 H       -3.952494811    27.596795760   -17.660139606
 H       -4.019420967    29.057986971   -18.679336340
 H       -3.192371811    27.592910100   -19.269402742
 H        7.201539939    19.483422179   -13.895626698
 H        7.327463729    17.706891774   -13.839266292
 H        6.624794407    18.504976966   -15.269155176
 H        3.103177033    16.828609326   -13.509745152
 H        3.970837719    16.918805038   -15.060580959
 H        4.670057389    15.995427330   -13.705614380
 H       -4.485394715    12.508282721    -2.787068535
 H       -5.804971250    12.005980212    -1.704303894
 H       -5.386364185    13.732428269    -1.850281939
 H       -3.905321632    12.722579849     2.072174386
 H       -4.911862144    13.954814552     1.269939046
 H       -5.477696263    12.267910116     1.367332275
 H       -0.286039248    -0.347448516    -2.451845954
 H       -0.279993899    -1.904835881    -1.584023340
 H       -1.734877097    -0.874469623    -1.562550203
 H       -0.306515014    -0.367017112     2.445398222
 H       -1.703090549    -0.996250096     1.534651677
 H       -0.182048906    -1.919309315     1.578867442

