139   

Si        0.000000000     0.000000000     0.000000000
 C        1.869110234     0.000000000     0.000000000
 C       -0.654719203     1.726065810     0.000000000
 C        0.156514782     2.814726029    -0.333989444
 C       -0.357511585     4.111588062    -0.327957294
 C       -1.693005906     4.348670858     0.007089431
 C       -2.505978177     3.256014643     0.337757425
 C       -1.995598413     1.960878739     0.333101144
 C       -2.276174679     5.686112999     0.027581828
 C       -1.612487335     6.817112171    -0.266254761
 C       -2.200903320     8.152415195    -0.244132865
 C       -3.538681585     8.379105362     0.092587843
 C       -4.063044884     9.671182213     0.101888317
 C       -3.252842838    10.766099027    -0.212378097
 C       -1.911091796    10.543608672    -0.548451415
 C       -1.394165631     9.250908462    -0.568613739
Si       -3.926163107    12.484226859    -0.206160114
 C       -2.502741992    13.606935077     0.050441718
 C       -2.077534120    14.575276244    -0.770765693
 C       -0.920103886    15.428125664    -0.476917160
 C       -0.548691884    16.417805855    -1.398280297
 C        0.540711617    17.243760059    -1.154654377
 C        1.269961217    17.103455365     0.035085906
 C        0.901756583    16.124618682     0.964779349
 C       -0.184113888    15.296919436     0.704587720
 N        2.384081565    17.993960440     0.216391078
 C        3.629132188    17.450586612    -0.363364928
 C        2.549591046    18.452649113     1.608930687
 C        4.112891798    16.133617382     0.268833738
 C        5.389738577    15.596901147    -0.397876706
 N        5.304092158    15.376900682    -1.855231556
 C        4.106711557    14.795303997    -2.326968034
 C        3.621518585    13.637200711    -1.683920966
 C        2.450540962    13.036894867    -2.116737920
 C        1.738209924    13.547346569    -3.212056096
 C        2.233461379    14.682852330    -3.857339603
 C        3.403535650    15.300687717    -3.432795128
 C        5.862342395    16.482627278    -2.649970822
 C        0.504925682    12.879700291    -3.634266888
 C       -0.244441468    13.289794595    -4.665955736
Si       -1.791795859    12.503961694    -5.244943278
 C       -1.570156212    11.962564597    -6.994675875
 C       -0.305100375    11.951800051    -7.589781639
 C       -0.148486505    11.540677100    -8.913285924
 C       -1.249548186    11.125797825    -9.666899858
 C       -2.515929372    11.132709573    -9.066236870
 C       -2.675935633    11.544142626    -7.745790884
 C       -1.134223745    10.687468232   -11.054113648
 C        0.016408314    10.633141420   -11.746146581
 C        0.131300105    10.194775867   -13.133271822
 C       -0.969861463     9.781565937   -13.887228274
 C       -0.814170278     9.370090105   -15.211165554
 C        0.448402039     9.364651356   -15.810620539
 C        1.555219024     9.779645809   -15.057091647
 C        1.396786929    10.189153447   -13.736162653
Si        0.689275594     8.826382031   -17.559697986
 C       -0.927847446     8.269281057   -18.313367979
 C        1.363791789    10.267726232   -18.540059525
 C        1.903957608     7.406091551   -17.589987698
 C       -2.212040489    10.994963955    -4.230378936
 C       -3.156764652    13.775871094    -5.130874520
 C       -4.845839647    12.806024266    -1.793931384
 C       -5.088750566    12.711112833     1.239998710
 C       -0.626408257    -0.866109426    -1.532537866
 C       -0.604316350    -0.890562536     1.528853705
 H        1.208679332     2.692062802    -0.605337951
 H        0.295798500     4.942000036    -0.589985568
 H       -3.549574522     3.418792347     0.601081005
 H       -2.678106768     1.148857985     0.599258093
 H       -3.333295437     5.718265847     0.308580462
 H       -0.556008009     6.786200716    -0.548281694
 H       -4.186221731     7.542571266     0.349026967
 H       -5.117232990     9.785663690     0.367943944
 H       -1.231638009    11.366194154    -0.800623825
 H       -0.350441227     9.094817834    -0.836317497
 H       -1.986597402    13.412750623     1.007512894
 H       -2.556295687    14.799484882    -1.731684729
 H       -1.111082206    16.534220912    -2.324455316
 H        0.834902893    18.005884887    -1.874862941
 H        1.462223533    16.005423174     1.887790917
 H       -0.453807161    14.534453548     1.435924157
 H        3.268530270    19.289825815     1.615140386
 H        2.902820135    17.684972463     2.312438495
 H        1.584797871    18.844780713     1.975363948
 H        6.876530240    16.716030845    -2.281730911
 H        5.262710411    17.406007474    -2.628846543
 H        5.975441190    16.155154276    -3.699648143
 H        4.171909245    13.213986107    -0.847887122
 H        2.081076391    12.151784923    -1.597576588
 H        1.696750259    15.103338349    -4.709397596
 H        3.747542140    16.188004495    -3.954298482
 H        0.249250447    12.006144291    -3.020455423
 H        0.039859307    14.176734744    -5.255565273
 H        0.594486404    12.259928487    -7.046549475
 H        0.846385063    11.543542227    -9.355176395
 H       -3.385882370    10.811842288    -9.635907071
 H       -3.687084261    11.527125849    -7.330032293
 H       -2.078955716    10.391933783   -11.519890875
 H        0.961194305    10.928038155   -11.279718278
 H       -1.964386246     9.776340099   -13.444495831
 H       -1.712980825     9.056796014   -15.749153776
 H        2.566496607     9.796507792   -15.473098567
 H        2.267916853    10.507762310   -13.166392500
 H        3.435032946    17.298040640    -1.452078787
 H        4.412863838    18.233884742    -0.280503122
 H        4.297118271    16.270847337     1.349560314
 H        3.304742157    15.375209411     0.195480261
 H        6.243536381    16.276459111    -0.183322076
 H        5.657234009    14.613947623     0.060994640
 H        2.266925082    -1.028681381     0.063577948
 H        2.271419524     0.564069067     0.860701890
 H        2.277777991     0.454388953    -0.919841662
 H       -0.787562466     7.942783607   -19.359421955
 H       -1.674600919     9.083092820   -18.319663895
 H       -1.361422835     7.418592324   -17.757848901
 H        0.661810136    11.121310320   -18.528942674
 H        2.323459264    10.625420356   -18.126844259
 H        1.536279779     9.991667471   -19.595059092
 H        1.528845219     6.547183583   -17.004179279
 H        2.084348264     7.053077201   -18.620500518
 H        2.879173643     7.696545236   -17.160916131
 H       -1.494107792    10.174939961    -4.419986969
 H       -2.187674621    11.204813891    -3.145408122
 H       -3.218038229    10.607887556    -4.469607339
 H       -2.961540541    14.632582116    -5.800568697
 H       -4.133769832    13.349496566    -5.416103063
 H       -3.248988705    14.173208394    -4.103585555
 H       -4.227940434    12.568988231    -2.678983420
 H       -5.757646092    12.185465618    -1.860214183
 H       -5.156502152    13.863107744    -1.872586378
 H       -4.599241327    12.452717282     2.196246274
 H       -5.429998660    13.759550191     1.315850402
 H       -5.986387527    12.076191878     1.143670460
 H       -0.281893173    -0.356307964    -2.450629867
 H       -0.272310875    -1.910943340    -1.578136549
 H       -1.730523560    -0.885299110    -1.562262365
 H       -0.291851550    -0.362004871     2.447857806
 H       -1.705340936    -0.967984155     1.549444895
 H       -0.198756523    -1.916447522     1.581238332

