139   

Si        0.000000000     0.000000000     0.000000000
 C        1.869419848     0.000000000     0.000000000
 C       -0.615044889     1.740622667     0.000000000
 C       -0.024678217     2.691182211     0.841253200
 C       -0.478887032     4.008987108     0.851638406
 C       -1.536336760     4.406954116     0.028197540
 C       -2.128085779     3.453609525    -0.809977770
 C       -1.674399147     2.136447871    -0.824560244
 C       -2.044834497     5.774612204     0.005647846
 C       -1.565465535     6.781331839     0.755796025
 C       -2.074200192     8.148969976     0.733027201
 C       -1.479244228     9.102746160     1.570185842
 C       -1.930358376    10.420006031     1.583177587
 C       -2.994281625    10.812808941     0.761442702
 C       -3.590119016     9.863386437    -0.074579804
 C       -3.131792383     8.546305091    -0.089482341
Si       -3.591048605    12.558988431     0.779763358
 C       -5.244717448    12.618514203    -0.005225834
 C       -5.562251122    13.329551331    -1.095223540
 C       -6.895229440    13.356179418    -1.699313243
 C       -7.107651108    14.140055915    -2.842285872
 C       -8.350076460    14.199639943    -3.452012043
 C       -9.450387874    13.505288479    -2.903529386
 C       -9.237331081    12.716917335    -1.755669186
 C       -7.974281069    12.631162102    -1.185591060
 N      -10.707529184    13.570248470    -3.527281440
 C      -11.043221087    14.809418499    -4.249991450
 C      -11.851769258    13.014127474    -2.784240463
 C      -11.116916070    16.042547547    -3.332025453
 C      -11.832074008    17.234499331    -3.988739442
 N      -13.232911902    16.997032697    -4.406148125
 C      -13.986356187    16.155873178    -3.556671080
 C      -14.043856402    16.480892548    -2.184637767
 C      -14.768592158    15.688661191    -1.310844295
 C      -15.482691047    14.570465073    -1.769367861
 C      -15.442532140    14.267242170    -3.131745494
 C      -14.714476292    15.049208942    -4.022004025
 C      -13.382136433    16.776680972    -5.853620488
 C      -16.233076547    13.766209118    -0.802058105
 C      -16.948473232    12.681002449    -1.124531512
Si      -17.901073438    11.646471855     0.050517127
 C      -19.672577545    11.673542222    -0.462735204
 C      -20.175480390    12.747469641    -1.207472951
 C      -21.512497092    12.770505488    -1.596306078
 C      -22.379542281    11.727512533    -1.245077025
 C      -21.874611394    10.659452783    -0.497769711
 C      -20.535709202    10.631441198    -0.109223336
 C      -23.772084784    11.797158262    -1.676096259
 C      -24.702924303    10.865229274    -1.409643819
 C      -26.095411821    10.934955849    -1.840693411
 C      -26.601006758    12.002405607    -2.587841720
 C      -27.939300847    12.028225940    -2.978769213
 C      -28.801232993    10.980291197    -2.638354075
 C      -28.296610148     9.908777527    -1.890770049
 C      -26.961506706     9.889292483    -1.494967792
Si      -30.573835761    11.011382673    -3.154417951
 C      -30.763970602    11.981935327    -4.740921814
 C      -31.187929446     9.268086858    -3.435145374
 C      -31.566918897    11.821582664    -1.794784011
 C      -17.224502813     9.907222113    -0.037665915
 C      -17.778510555    12.290922723     1.798038772
 C       -3.765436656    13.152421837     2.543214159
 C       -2.354575310    13.619557887    -0.132942376
 C       -0.608662163    -0.911577320    -1.514197107
 C       -0.636131868    -0.848120353     1.538970689
 H        0.804453595     2.439978953     1.508732443
 H       -0.000331368     4.730012205     1.512139580
 H       -2.952675000     3.741687595    -1.459638132
 H       -2.174468949     1.438215609    -1.501223746
 H       -2.875042482     5.942468375    -0.686954985
 H       -0.735181933     6.613761743     1.448154789
 H       -0.654047618     8.813395264     2.218008221
 H       -1.426712936    11.120312966     2.254938533
 H       -4.423226926    10.116550292    -0.739159319
 H       -3.610187861     7.826074893    -0.750926450
 H       -5.998834801    12.002233330     0.510593188
 H       -4.833664238    13.954777140    -1.628365663
 H       -6.278903855    14.705703370    -3.269325721
 H       -8.469180056    14.788615814    -4.356378596
 H      -10.052901428    12.158422896    -1.306992952
 H       -7.833621585    11.997692247    -0.307978278
 H      -12.790414010    13.182615752    -3.342110614
 H      -11.979684481    13.451260343    -1.780170180
 H      -11.723740083    11.920738010    -2.689774046
 H      -12.923009224    17.624578240    -6.392596908
 H      -14.455634296    16.781591506    -6.116244567
 H      -12.930918259    15.842830990    -6.223090311
 H      -13.519988940    17.361085765    -1.818763021
 H      -14.794062758    15.947664123    -0.251643202
 H      -15.992610805    13.405904097    -3.514727071
 H      -14.706785048    14.780458285    -5.073772356
 H      -16.154973532    14.142311755     0.226570220
 H      -17.008111828    12.327390693    -2.166944178
 H      -19.544528788    13.590455876    -1.508786724
 H      -21.885431442    13.611196275    -2.178774005
 H      -22.527095900     9.836410540    -0.212092963
 H      -20.198019439     9.769090514     0.472002335
 H      -24.027434975    12.690348680    -2.254067954
 H      -24.447550049     9.972030156    -0.831686622
 H      -25.949973889    12.827830187    -2.870719690
 H      -28.276362062    12.891292267    -3.559640718
 H      -28.922380158     9.061858040    -1.596045227
 H      -26.588971452     9.048612046    -0.912398515
 H      -10.298505412    14.965866802    -5.061472859
 H      -12.018710899    14.645173655    -4.763466554
 H      -11.627211194    15.769531946    -2.385832081
 H      -10.095946856    16.346153878    -3.027590151
 H      -11.858445366    18.086478798    -3.266119403
 H      -11.245836952    17.592108939    -4.863026943
 H        2.269794099    -1.028197451    -0.045788870
 H        2.278639487     0.475272487     0.908588254
 H        2.268309500     0.551422837    -0.870927642
 H      -31.806882433    11.952899342    -5.103734858
 H      -30.122920834    11.569846346    -5.541217708
 H      -30.491022975    13.043361100    -4.607587555
 H      -30.567124412     8.741066380    -4.182244477
 H      -31.169551404     8.671926602    -2.506168574
 H      -32.227818491     9.266359106    -3.807583103
 H      -31.221980869    12.854114148    -1.605460820
 H      -32.639374500    11.869430057    -2.052940099
 H      -31.476016688    11.265621535    -0.844313348
 H      -17.358229909     9.473500418    -1.045204210
 H      -16.143162573     9.888913688     0.190042732
 H      -17.726576041     9.237846030     0.682528185
 H      -18.170511987    13.321656893     1.875524221
 H      -18.362995791    11.665717391     2.497136025
 H      -16.732942030    12.299941616     2.153612976
 H       -4.442786819    12.498649243     3.121934305
 H       -2.792859585    13.168817999     3.064877276
 H       -4.181200741    14.175574493     2.579610841
 H       -2.237844198    13.287986444    -1.181026494
 H       -2.665084184    14.679266448    -0.147420018
 H       -1.357236862    13.570222241     0.339411880
 H       -0.306758559    -0.394843892    -2.443027169
 H       -0.195353382    -1.935194629    -1.555990424
 H       -1.709269781    -1.000756505    -1.522227666
 H       -0.290248610    -0.335143381     2.454164098
 H       -1.740868373    -0.856392838     1.564569587
 H       -0.293003915    -1.896147220     1.592594569

