139   

Si        0.000000000     0.000000000     0.000000000
 C        1.869325323     0.000000000     0.000000000
 C       -0.623643764     1.737324314     0.000000000
 C       -0.033463543     2.697261588     0.830433604
 C       -0.497863035     4.011788232     0.837072915
 C       -1.566491140     4.396131875     0.021683644
 C       -2.158569206     3.433029449    -0.805241374
 C       -1.694314009     2.119763648    -0.816665612
 C       -2.087487031     5.758814862    -0.006115724
 C       -1.612390500     6.777492921     0.730610683
 C       -2.138339453     8.138560492     0.697963410
 C       -1.549817703     9.109726319     1.519122750
 C       -2.018921776    10.420954538     1.520602418
 C       -3.095399141    10.789566056     0.704774836
 C       -3.685285353     9.822237120    -0.115317368
 C       -3.208452830     8.511986021    -0.119848360
Si       -3.723760042    12.524632190     0.700144034
 C       -5.437779523    12.511629062     0.053645297
 C       -5.860954221    13.165189264    -1.036495017
 C       -7.239171772    13.134944481    -1.528297334
 C       -7.565994997    13.860092998    -2.682487697
 C       -8.855963912    13.864026254    -3.188479757
 C       -9.889117074    13.172684328    -2.519175859
 C       -9.560572097    12.442905640    -1.358583533
 C       -8.253209854    12.410856628    -0.893919290
 N      -11.197002440    13.173689112    -3.027580039
 C      -11.607069994    14.305801777    -3.874429625
 C      -12.265892614    12.715370897    -2.122816214
 C      -11.655374921    15.643736130    -3.115230745
 C      -12.425792870    16.733230708    -3.878829162
 N      -13.843882564    16.430219740    -4.178745989
 C      -14.533477624    15.703660586    -3.181668231
 C      -14.524779751    16.214863079    -1.866395723
 C      -15.185120372    15.541231013    -0.853152023
 C      -15.896103087    14.358952068    -1.112678714
 C      -15.920952463    13.869896828    -2.420300573
 C      -15.259359614    14.532119542    -3.448910933
 C      -14.071568638    16.015846506    -5.572371905
 C      -16.576765622    13.686412177    -0.003761135
 C      -17.282979643    12.555909617    -0.131972223
Si      -18.148711228    11.683218262     1.227357115
 C      -19.944878561    11.610359750     0.814839804
 C      -20.508263299    12.545594298    -0.059620289
 C      -21.865947629    12.492702527    -0.373128899
 C      -22.690246764    11.511676677     0.185000225
 C      -22.123695618    10.579428064     1.064639025
 C      -20.767591376    10.627304237     1.377867144
 C      -24.115520448    11.417544075    -0.113663225
 C      -24.781215451    12.245052288    -0.937023656
 C      -26.206688124    12.149884776    -1.234927000
 C      -27.029278341    11.166334338    -0.678117820
 C      -28.386866400    11.112216379    -0.990490301
 C      -28.954632384    12.045962051    -1.864780536
 C      -28.132878616    13.032174196    -2.423402723
 C      -26.775724074    13.080978817    -2.113183630
Si      -30.753972912    11.963313180    -2.270305496
 C      -31.721574711    11.501636854    -0.738622564
 C      -31.357322195    13.619185712    -2.893773827
 C      -31.000391155    10.665789915    -3.592119991
 C      -17.439764316     9.958622912     1.346045630
 C      -17.946914140    12.569555077     2.857772184
 C       -3.766201887    13.199576612     2.442084109
 C       -2.591664264    13.564078863    -0.360436979
 C       -0.606287631    -0.913525510    -1.514295194
 C       -0.633859760    -0.850270811     1.538926137
 H        0.803534249     2.456242255     1.491722348
 H       -0.018757247     4.740877240     1.488224533
 H       -2.991904819     3.710614737    -1.448288917
 H       -2.195380035     1.413961397    -1.484777726
 H       -2.925963971     5.912597145    -0.692349508
 H       -0.774468166     6.626086124     1.417127492
 H       -0.715312997     8.839454521     2.163125073
 H       -1.519289814    11.135807880     2.179839646
 H       -4.529434998    10.055437565    -0.773472130
 H       -3.682688276     7.777733444    -0.768818852
 H       -6.129162548    11.901555674     0.656777967
 H       -5.194870927    13.781676150    -1.654608459
 H       -6.790798358    14.424399539    -3.201975626
 H       -9.062335828    14.409159017    -4.104257032
 H      -10.320926337    11.883789608    -0.822264814
 H       -8.023104563    11.820223495    -0.005297577
 H      -13.260164427    12.902656904    -2.566958577
 H      -12.246922666    13.207631392    -1.136392174
 H      -12.173420777    11.622896848    -1.983603775
 H      -13.662640580    16.790347662    -6.245630586
 H      -15.158218817    15.970572715    -5.768557491
 H      -13.622312955    15.047335045    -5.841412008
 H      -14.001019082    17.144269609    -1.654654971
 H      -15.161329802    15.944935271     0.159813550
 H      -16.470344115    12.955117115    -2.649463583
 H      -15.301314116    14.120477769    -4.452602051
 H      -16.454488266    14.204039562     0.956952002
 H      -17.389001911    12.058233910    -1.109797008
 H      -19.912294836    13.337596869    -0.525619648
 H      -22.280370149    13.228535813    -1.060236629
 H      -22.748618362     9.807545912     1.509875723
 H      -20.381551878     9.872774300     2.068551813
 H      -24.635737617    10.599065781     0.392664698
 H      -24.261866980    13.064104131    -1.443553337
 H      -26.613161871    10.430193443     0.007442294
 H      -28.978414497    10.319314569    -0.524181134
 H      -28.520550943    13.788308697    -3.111551095
 H      -26.153147153    13.854818014    -2.558844919
 H      -10.920905100    14.371128270    -4.747750481
 H      -12.609339732    14.060957866    -4.297317328
 H      -12.111382951    15.486566344    -2.116497835
 H      -10.626085424    15.995551205    -2.906051478
 H      -12.425317023    17.672497206    -3.273335998
 H      -11.896222618    16.978570096    -4.825062527
 H        2.269290019    -1.028346130    -0.045655298
 H        2.278530299     0.475240564     0.908627297
 H        2.268453654     0.551232916    -0.870927866
 H      -32.809070182    11.528108388    -0.929460561
 H      -31.512692809    12.201142159     0.091245135
 H      -31.471992008    10.485240335    -0.387394509
 H      -31.144902441    14.422994280    -2.165775795
 H      -30.877640898    13.896514394    -3.848798988
 H      -32.448576534    13.607244276    -3.064859285
 H      -30.650697439     9.674084652    -3.253338778
 H      -32.065346059    10.568916812    -3.867169913
 H      -30.439292600    10.916020065    -4.510541557
 H      -17.616449002     9.385749565     0.417769470
 H      -16.348012189     9.987383708     1.515051610
 H      -17.889640436     9.390319265     2.178799884
 H      -18.361898933    13.593230254     2.813617386
 H      -18.474549078    12.038069917     3.670343946
 H      -16.883810993    12.648178793     3.146437355
 H       -4.363311933    12.551850888     3.109275864
 H       -2.753199357    13.278426140     2.873148269
 H       -4.218724028    14.207406839     2.467273501
 H       -2.554715269    13.185834417    -1.398437611
 H       -2.925956769    14.615956052    -0.396507802
 H       -1.557765984    13.555326320     0.028564063
 H       -0.311037594    -0.392367539    -2.442808690
 H       -0.185363274    -1.933844352    -1.559283129
 H       -1.706168921    -1.011035353    -1.519407651
 H       -0.291913012    -0.334339253     2.453970011
 H       -1.738562359    -0.864059586     1.563074696
 H       -0.285391705    -1.896400308     1.593944241

