139   

Si        0.000000000     0.000000000     0.000000000
 C        1.868822766     0.000000000     0.000000000
 C       -0.650462842     1.729293460     0.000000000
 C        0.171598060     2.829405586     0.263940324
 C       -0.348433189     4.124435939     0.256911005
 C       -1.707645472     4.346472987     0.022092472
 C       -2.532422912     3.241969911    -0.231904705
 C       -2.011475190     1.950999685    -0.250411019
 C       -2.304739122     5.677519631     0.003353059
 C       -1.641648980     6.829155500     0.204133996
 C       -2.264297013     8.149803486     0.179982477
 C       -3.630037251     8.329768377    -0.058916013
 C       -4.191394138     9.605898039    -0.074840240
 C       -3.387202946    10.736544031     0.101499691
 C       -2.016509606    10.561154046     0.329455967
 C       -1.465101336     9.282748725     0.379449543
Si       -4.130316014    12.428747951     0.080569415
 C       -2.766776569    13.595416537    -0.299031801
 C       -2.310547058    14.613428708     0.441204172
 C       -1.202378240    15.481235298     0.021657664
 C       -0.790054970    16.524279489     0.860611666
 C        0.256341090    17.365464688     0.494508486
 C        0.903039725    17.177392934    -0.730657563
 C        0.497851839    16.138041118    -1.578575364
 C       -0.542457283    15.300192986    -1.199807640
 N        1.996187500    17.976291031    -1.225814122
 C        3.162456151    18.030093175    -0.322965748
 C        1.528411785    19.291791169    -1.700469735
 C        3.238779997    19.232297014     0.635493897
 C        4.314469550    18.999662541     1.717855489
 N        3.835313957    19.226976060     3.100309907
 C        2.671218056    18.472562316     3.414772380
 C        2.754205633    17.069513134     3.310248652
 C        1.652551933    16.284056153     3.603813078
 C        0.452780461    16.862431804     4.047957806
 C        0.383178343    18.250963986     4.169848146
 C        1.475948388    19.053910724     3.859648159
 C        3.786488933    20.658739040     3.444763042
 C       -0.682347993    15.986503942     4.344662087
 C       -1.872530819    16.424524990     4.773477391
Si       -3.338293816    15.400497145     5.165893540
 C       -3.046477133    13.597357683     4.913585376
 C       -2.286820287    13.137002067     3.829937888
 C       -2.069566305    11.774169672     3.644156004
 C       -2.638661302    10.833886439     4.511396732
 C       -3.406479459    11.294945915     5.584981766
 C       -3.602621187    12.659913454     5.789659328
 C       -2.386305574     9.415214221     4.281729387
 C       -2.860622057     8.434760178     5.067934248
 C       -2.629898544     7.009123144     4.870453536
 C       -1.870506243     6.500199373     3.813794713
 C       -1.682441119     5.125678055     3.673481189
 C       -2.230448397     4.234252651     4.602680162
 C       -2.986256175     4.742664553     5.665328008
 C       -3.187709247     6.114114599     5.792890334
Si       -1.977141974     2.418092835     4.409950928
 C       -0.200241113     2.120278000     3.911453030
 C       -2.308608496     1.530660444     6.023336400
 C       -3.151015899     1.786513278     3.104773918
 C       -3.816399691    15.746131358     6.938351332
 C       -4.717395283    15.919888577     4.013323394
 C       -5.367281823    12.560387970    -1.316240652
 C       -4.994856521    12.753217085     1.695049622
 C       -0.602548509    -0.863816259    -1.545521492
 C       -0.632765366    -0.903615277     1.506537154
 H        1.239837322     2.716985302     0.468364865
 H        0.317661186     4.964810568     0.444751805
 H       -3.594112598     3.392878395    -0.421144755
 H       -2.702893413     1.131174988    -0.465153872
 H       -3.383176605     5.686534145    -0.187081515
 H       -0.565574114     6.830000334     0.396742944
 H       -4.274743351     7.466989060    -0.218015227
 H       -5.269595917     9.679954650    -0.240455902
 H       -1.339891679    11.411264956     0.467106077
 H       -0.399287700     9.167006521     0.566305341
 H       -2.307098240    13.369856211    -1.279118928
 H       -2.740431638    14.885250503     1.412487583
 H       -1.284741764    16.679962268     1.821888073
 H        0.572538052    18.158931660     1.168742500
 H        1.010421985    15.996884399    -2.529639820
 H       -0.841846068    14.494364834    -1.869760395
 H        2.375621715    19.835601498    -2.148866105
 H        1.069730667    19.920681137    -0.922619820
 H        0.778679208    19.129275518    -2.495809832
 H        4.797215476    21.086227475     3.323374872
 H        3.519232127    20.770983076     4.510338846
 H        3.084135875    21.247325908     2.834907342
 H        3.687644316    16.606206352     2.998771072
 H        1.723963737    15.200373633     3.498849093
 H       -0.538015994    18.724361240     4.511482372
 H        1.382501370    20.131013959     3.956873852
 H       -0.451391693    14.921218030     4.202827788
 H       -2.055912295    17.502017816     4.923039700
 H       -1.839607890    13.819176880     3.097974351
 H       -1.459050690    11.435409296     2.807362541
 H       -3.858412272    10.586665756     6.277154459
 H       -4.201361967    12.954845676     6.655453466
 H       -1.781779844     9.187374521     3.398924738
 H       -3.473890205     8.675708736     5.942674822
 H       -1.434953899     7.175434336     3.078327261
 H       -1.098681170     4.781999805     2.812691307
 H       -3.438649806     4.093226029     6.419107535
 H       -3.783550445     6.491782861     6.621294273
 H        3.201782703    17.078416516     0.255676853
 H        4.057871335    18.031852755    -0.989684634
 H        3.456281063    20.156773319     0.073470504
 H        2.249848516    19.400334450     1.103388423
 H        4.707268398    17.957967496     1.673010393
 H        5.193932294    19.654517753     1.538074950
 H        2.266513963    -1.029039254    -0.059619414
 H        2.279222392     0.458192738     0.917146956
 H        2.270662172     0.559206860    -0.864000057
 H        0.049036246     1.045722366     3.916928177
 H        0.496703144     2.627851093     4.602076419
 H       -0.001513713     2.506566644     2.894228245
 H       -1.680122193     1.931336954     6.838523218
 H       -3.363424356     1.628455097     6.333531341
 H       -2.089607975     0.451949907     5.935252521
 H       -2.972562196     2.293639196     2.136693827
 H       -3.028019116     0.702330764     2.940521099
 H       -4.203031472     1.970092206     3.384650025
 H       -3.040440490    15.383929798     7.638023775
 H       -3.942027353    16.828350114     7.119250868
 H       -4.766885973    15.254573011     7.209324626
 H       -4.439420623    15.763730383     2.954683186
 H       -5.636071792    15.337271742     4.204200105
 H       -4.967233122    16.987866682     4.137328558
 H       -4.910840784    12.299712345    -2.287620275
 H       -6.227008607    11.885714457    -1.161073512
 H       -5.763079746    13.588492371    -1.401275615
 H       -4.335351476    12.551120339     2.562610073
 H       -5.337039252    13.800158644     1.774131432
 H       -5.879626611    12.101864737     1.813751793
 H       -0.283126331    -0.323675004    -2.455224716
 H       -0.202822696    -1.891033967    -1.611933415
 H       -1.703914481    -0.933937636    -1.572579327
 H       -0.221044391    -0.474539902     2.438164561
 H       -1.733954377    -0.849346295     1.577863169
 H       -0.351344369    -1.971122856     1.480193816

