139   

Si        0.000000000     0.000000000     0.000000000
 C        1.868953358     0.000000000     0.000000000
 C       -0.640137888     1.730344618     0.000000000
 C        0.118380503     2.770254480     0.548072877
 C       -0.365895614     4.077455456     0.547747139
 C       -1.626329072     4.371774826     0.020503348
 C       -2.386868726     3.328551214    -0.522177171
 C       -1.899212228     2.024202442    -0.537152983
 C       -2.171504890     5.724656902     0.000031553
 C       -1.534655798     6.808183793     0.475132184
 C       -2.076460844     8.162179040     0.456392244
 C       -1.304711176     9.203599547     0.986125882
 C       -1.781561261    10.512681272     0.989518717
 C       -3.046291990    10.806477990     0.470403216
 C       -3.823229424     9.766437521    -0.053685423
 C       -3.342746233     8.458700098    -0.057556707
Si       -3.716801824    12.525360509     0.454927060
 C       -5.301221401    12.400363669     1.364199686
 C       -6.512933047    12.694950962     0.877527216
 C       -7.748873461    12.574798080     1.655425518
 C       -8.968983780    12.909512981     1.049998873
 C      -10.161791013    12.810392815     1.749733937
 C      -10.160009062    12.347489260     3.077411644
 C       -8.949325768    11.983652240     3.678105717
 C       -7.761183966    12.081516157     2.962175321
 N      -11.425302851    12.271275016     3.736656645
 C      -11.983170263    13.597977467     4.077024295
 C      -11.478019638    11.324602820     4.865424236
 C      -11.139081225    14.429681682     5.062482443
 C      -10.232203087    15.431443689     4.322812935
 N       -9.143991765    16.033036044     5.121499819
 C       -7.958802002    15.213296491     5.151012622
 C       -6.887891058    15.673225907     4.371637500
 C       -5.702248780    14.952856256     4.334239399
 C       -5.574185607    13.744716129     5.035290180
 C       -6.647193999    13.297897501     5.812181077
 C       -7.824786394    14.035469059     5.892118294
 C       -9.560435559    16.465997013     6.468115515
 C       -4.299311080    13.022928499     4.962142874
 C       -4.058343908    11.863485667     5.586464734
Si       -2.487137083    10.918004063     5.531198274
 C       -2.869916290     9.261499457     4.819309119
 C       -3.948975329     9.117037968     3.940049901
 C       -4.252447397     7.871724286     3.392595020
 C       -3.472136086     6.751487576     3.692049071
 C       -2.384894950     6.902274324     4.562512727
 C       -2.084980899     8.142946967     5.120126589
 C       -3.752595491     5.429261354     3.142176348
 C       -4.762669383     5.155144824     2.299516167
 C       -5.047231741     3.835412644     1.747135057
 C       -4.278784467     2.707060230     2.049305382
 C       -4.588612591     1.465096309     1.497299109
 C       -5.670061533     1.326574140     0.618866848
 C       -6.436576313     2.455738149     0.309973394
 C       -6.127718282     3.694489728     0.867379592
Si       -6.062843742    -0.326797111    -0.100640121
 C       -4.526797982    -1.015629507    -0.914498382
 C       -6.607745738    -1.459473794     1.282297106
 C       -7.423754513    -0.192460191    -1.374468869
 C       -1.178801704    11.748281650     4.494589041
 C       -1.876086757    10.744247610     7.289184954
 C       -2.603483410    13.733948791     1.341478313
 C       -3.949810642    13.079188067    -1.311859351
 C       -0.600222706    -0.898582904    -1.526293581
 C       -0.649251463    -0.855114880     1.530788716
 H        1.106795433     2.601328299     0.982634341
 H        0.247103424     4.870908313     0.971299649
 H       -3.376350129     3.533611777    -0.930110042
 H       -2.538172080     1.253591118    -0.977647613
 H       -3.170991683     5.809024156    -0.436847551
 H       -0.539898704     6.720177733     0.920867301
 H       -0.323324209     8.990312945     1.404835424
 H       -1.130245856    11.285698342     1.405100326
 H       -4.823365102     9.937778671    -0.463867202
 H       -3.964207186     7.663707556    -0.466150866
 H       -5.176283597    12.050504668     2.405236697
 H       -6.675183785    13.053845426    -0.145883369
 H       -8.982043056    13.263355786     0.019601045
 H      -11.105280869    13.069650409     1.273955138
 H       -8.923446761    11.629089321     4.704667188
 H       -6.826261331    11.790331646     3.447496749
 H      -12.535941807    11.166961693     5.138517933
 H      -10.931917974    11.646650662     5.764897128
 H      -11.077023169    10.348353141     4.540248975
 H      -10.414091474    17.157220258     6.371495221
 H       -8.727351782    17.028222003     6.926786398
 H       -9.841132674    15.651074010     7.150867155
 H       -7.001358728    16.596353727     3.803540287
 H       -4.871550166    15.322082436     3.733659198
 H       -6.564361049    12.368792349     6.376286728
 H       -8.639255192    13.688373665     6.521106438
 H       -3.549899746    13.531624966     4.341827424
 H       -4.833049162    11.378309325     6.204095016
 H       -4.586443516     9.961057563     3.654450407
 H       -5.099704084     7.783888799     2.713888314
 H       -1.763524915     6.042051055     4.803989511
 H       -1.226721731     8.200685194     5.793835005
 H       -3.062006657     4.642887325     3.460748131
 H       -5.448519229     5.944286759     1.976961458
 H       -3.424024557     2.791696552     2.719121693
 H       -3.950064425     0.620546341     1.772098455
 H       -7.291028720     2.407905555    -0.369627557
 H       -6.736940631     4.560642323     0.615897903
 H      -12.133181634    14.155133238     3.124748868
 H      -13.001353183    13.431570538     4.495047774
 H      -11.803147811    14.969892436     5.760323278
 H      -10.524564488    13.759124078     5.691030304
 H       -9.775775407    14.944427791     3.428423705
 H      -10.843339273    16.280922621     3.939929302
 H        2.269026251    -1.027134405    -0.067369713
 H        2.280374204     0.453833251     0.918325762
 H        2.267475666     0.567976034    -0.860186031
 H       -4.720439986    -2.007812818    -1.358502687
 H       -3.705013147    -1.132899994    -0.185560265
 H       -4.170921928    -0.352879140    -1.723920609
 H       -5.825408641    -1.561057139     2.055339259
 H       -7.514255924    -1.072293304     1.781922862
 H       -6.841524681    -2.470987107     0.907366454
 H       -7.145709220     0.493567041    -2.194323236
 H       -7.644020405    -1.175551063    -1.827329308
 H       -8.362740749     0.180428714    -0.928399568
 H       -1.465609289    11.766759612     3.427015055
 H       -1.000175427    12.787808029     4.820073133
 H       -0.217467972    11.207727093     4.563113001
 H       -2.595993483    10.184601594     7.913032974
 H       -0.912467998    10.207780783     7.332564077
 H       -1.727494430    11.732207122     7.760786061
 H       -2.426158459    13.438498861     2.390910442
 H       -1.621150044    13.814262132     0.843704740
 H       -3.051208874    14.744480110     1.353333268
 H       -4.608905368    12.390103226    -1.869832593
 H       -4.397648008    14.087219369    -1.364417581
 H       -2.985561095    13.115619583    -1.850304942
 H       -0.295993099    -0.366447852    -2.445825894
 H       -0.181809830    -1.918839077    -1.579516069
 H       -1.700855437    -0.990299747    -1.544375036
 H       -0.315781865    -0.339439107     2.449142283
 H       -1.753962422    -0.871727486     1.544452324
 H       -0.297483150    -1.899717476     1.587797263

