139   

Si        0.000000000     0.000000000     0.000000000
 C        1.869470413     0.000000000     0.000000000
 C       -0.646761880     1.729106741     0.000000000
 C        0.162989842     2.806285657    -0.373194150
 C       -0.339405533     4.107411103    -0.368357192
 C       -1.661602418     4.361420573     0.005583585
 C       -2.472964683     3.280363177     0.375456862
 C       -1.974333179     1.980398167     0.371122273
 C       -2.230016941     5.705371670     0.025657578
 C       -1.561220202     6.822975020    -0.305465233
 C       -2.127880228     8.167681510    -0.286011913
 C       -3.450542249     8.423030024     0.087918027
 C       -3.951118016     9.724342736     0.092179202
 C       -3.134740611    10.800134963    -0.272854638
 C       -1.809647897    10.548360490    -0.648287529
 C       -1.314801691     9.246518307    -0.657265665
Si       -3.794763049    12.523831676    -0.268118632
 C       -2.377543064    13.683314787    -0.234038249
 C       -2.105341553    14.606406998    -1.165879854
 C       -0.962596417    15.519048385    -1.108544947
 C       -0.780079901    16.445663993    -2.145571456
 C        0.284707512    17.330744851    -2.138638431
 C        1.193018848    17.347764373    -1.055883983
 C        1.011194349    16.416496300    -0.014365801
 C       -0.037963595    15.508478233    -0.060322122
 N        2.263363193    18.249525966    -1.066514482
 C        2.041595117    19.579950472    -1.653596286
 C        3.187582116    18.228386113     0.073825346
 C        0.817807861    20.345151242    -1.116025825
 C        1.025500112    20.994061114     0.264053434
 N        1.987983057    22.112646133     0.324288522
 C        3.344017871    21.731639916     0.486033004
 C        3.682552053    21.031913717     1.662385061
 C        4.989639731    20.630705154     1.882087993
 C        6.004452706    20.943259345     0.963773566
 C        5.668874096    21.663553804    -0.184519748
 C        4.359022649    22.067293210    -0.422120074
 C        1.726358885    23.167608586    -0.666522971
 C        7.368867357    20.493315695     1.247445509
 C        8.422243741    20.726372379     0.453672399
Si       10.131290266    20.164691519     0.805659312
 C       10.161544048    19.242759238     2.403200215
 C        9.862370512    19.917972205     3.593227272
 C        9.878330019    19.244304881     4.812942383
 C       10.184503608    17.881149326     4.872275172
 C       10.478998492    17.207512335     3.680360242
 C       10.467908607    17.878995385     2.459424439
 C       10.213196186    17.135135880     6.126065025
 C        9.951202982    17.660730649     7.334820671
 C        9.979941584    16.914505577     8.588638371
 C       10.289822637    15.552899486     8.648783400
 C       10.305610313    14.878886934     9.869268232
 C       10.020283856    15.555324893    11.060466116
 C        9.710659155    16.919778881    11.002800339
 C        9.687796486    17.588779145     9.781384196
Si       10.042086974    14.659559867    12.675131759
 C       11.326953831    13.302205106    12.633029990
 C       10.456540921    15.842792396    14.061964618
 C        8.349672761    13.920625618    12.959181309
 C       10.695162461    19.077901991    -0.605104445
 C       11.251069492    21.654033429     0.936416865
 C       -4.847283964    12.760947960    -1.792128464
 C       -4.819091124    12.812902983     1.267920306
 C       -0.628861548    -0.864439064    -1.532575545
 C       -0.604575981    -0.891329424     1.528302957
 H        1.205341866     2.671392778    -0.674793280
 H        0.312763694     4.928443082    -0.661311850
 H       -3.506214573     3.455838219     0.669419166
 H       -2.655060725     1.177908454     0.668486929
 H       -3.276945428     5.754570098     0.338961985
 H       -0.514163026     6.773086028    -0.619138422
 H       -4.103299709     7.602405087     0.379290563
 H       -4.993287821     9.862173624     0.392448573
 H       -1.127988752    11.352908399    -0.944996916
 H       -0.282849364     9.069088242    -0.954923641
 H       -1.735283964    13.565211144     0.653658865
 H       -2.728081757    14.748965432    -2.058956103
 H       -1.480757339    16.463676408    -2.980921814
 H        0.421810224    18.010034285    -2.974495215
 H        1.687033594    16.394797177     0.834498028
 H       -0.146786242    14.786563940     0.751075944
 H        4.031662474    18.919107607    -0.111720392
 H        3.623016450    17.217013404     0.173806096
 H        2.718827828    18.514348677     1.029396982
 H        0.667704285    23.472495217    -0.592942053
 H        1.934054823    22.878471964    -1.708462799
 H        2.337428367    24.054055597    -0.417616767
 H        2.911694523    20.820483162     2.401137205
 H        5.235790909    20.079864900     2.791304075
 H        6.440846509    21.921016087    -0.910664765
 H        4.132910557    22.629019055    -1.323314148
 H        7.450371486    19.932487478     2.190583934
 H        8.317499357    21.287247036    -0.487597252
 H        9.612626300    20.983620896     3.609647064
 H        9.647870221    19.791897187     5.725178543
 H       10.719908276    16.146245088     3.704037142
 H       10.705888993    17.300456263     1.562584884
 H       10.471385144    16.076996527     6.023008398
 H        9.693481595    18.718936205     7.438580659
 H       10.521371463    15.004749266     7.737193555
 H       10.551920902    13.813456855     9.851578274
 H        9.480116699    17.500428078    11.900313015
 H        9.442447667    18.649013897     9.757208478
 H        2.964828956    20.189339035    -1.519623203
 H        1.934027050    19.441939762    -2.756805938
 H        0.521403792    21.113540680    -1.854164287
 H       -0.051498059    19.656873345    -1.051504445
 H        0.049690234    21.398563625     0.626383566
 H        1.326056421    20.215011075     0.999792703
 H        2.267714697    -1.028046724     0.069234297
 H        2.270747662     0.569009115     0.858000006
 H        2.278203065     0.449832798    -0.921889724
 H       11.407490538    12.797990704    13.612510392
 H       12.325537468    13.704925708    12.383900203
 H       11.082720686    12.529350476    11.883514386
 H       11.415861253    16.358370674    13.874449646
 H        9.679485941    16.617057158    14.186470600
 H       10.548966347    15.310778165    15.025641344
 H        8.076620233    13.218192663    12.151219820
 H        8.307421272    13.365795711    13.912911963
 H        7.569519790    14.702343906    12.992164836
 H       10.024044937    18.210018720    -0.739328668
 H       10.707881246    19.633341337    -1.559995894
 H       11.715824496    18.691882620    -0.433273600
 H       10.918352524    22.342438324     1.734144997
 H       12.287995607    21.351937861     1.171339643
 H       11.275580261    22.226490076    -0.007502263
 H       -4.259619012    12.600964122    -2.714633749
 H       -5.690260319    12.047391519    -1.812781607
 H       -5.271195031    13.779770411    -1.834905731
 H       -4.236953810    12.605559212     2.184058407
 H       -5.163885771    13.861195197     1.324553947
 H       -5.713399310    12.166425237     1.288226462
 H       -0.282419835    -0.356117198    -2.450611615
 H       -0.278730341    -1.910556307    -1.577611775
 H       -1.733073064    -0.879356344    -1.562287383
 H       -0.287568532    -0.366010428     2.447629749
 H       -1.705893847    -0.963916001     1.551078893
 H       -0.203454371    -1.919063987     1.577457701

