139   

Si        0.000000000     0.000000000     0.000000000
 C        1.869182859     0.000000000     0.000000000
 C       -0.651717827     1.727439229     0.000000000
 C        0.175486362     2.818406515     0.283361764
 C       -0.334970009     4.116586630     0.278629873
 C       -1.682990891     4.352909654    -0.002924812
 C       -2.511763656     3.257905328    -0.282509139
 C       -2.004745049     1.961300973    -0.280296112
 C       -2.261023540     5.692697861    -0.019262363
 C       -1.578157728     6.823272199     0.228755591
 C       -2.156444288     8.162906299     0.212348264
 C       -3.505225193     8.397383725    -0.069531966
 C       -4.016459095     9.694727952    -0.074508206
 C       -3.187271808    10.785157902     0.206263545
 C       -1.835493717    10.554462728     0.490225503
 C       -1.328043777     9.257902501     0.492136941
Si       -3.850425058    12.505788911     0.203032272
 C       -2.495360303    13.599343976    -0.370937394
 C       -1.965111443    14.606819869     0.333771092
 C       -0.880758816    15.467084287    -0.149299439
 C       -0.413063114    16.490508372     0.688422928
 C        0.610649046    17.332061393     0.279505200
 C        1.211873333    17.142893199    -0.975329191
 C        0.773363648    16.105561474    -1.804767441
 C       -0.254595978    15.267867040    -1.382905845
 N        2.262235973    18.060224506    -1.314910174
 C        1.731898365    19.326184758    -1.871666285
 C        3.331686780    17.470691273    -2.140591328
 C        1.148525923    19.215392815    -3.293494499
 C       -0.170904591    19.986221727    -3.483903857
 N       -1.390979615    19.299827749    -3.016423161
 C       -1.625113410    17.996938485    -3.491825368
 C       -1.108165320    17.582294476    -4.738071096
 C       -1.341255257    16.297376560    -5.202869638
 C       -2.140634536    15.398294350    -4.484925554
 C       -2.692116593    15.826350498    -3.273487605
 C       -2.459238664    17.105188604    -2.787959936
 C       -1.684562435    19.534178975    -1.591262733
 C       -2.352672815    14.054472015    -5.023064392
 C       -3.094900936    13.111612395    -4.427674232
Si       -3.373862652    11.423657994    -5.082925715
 C       -2.483262665    11.210185561    -6.683757835
 C       -2.804770382    12.038128599    -7.766595493
 C       -2.146584678    11.897115466    -8.986716583
 C       -1.150772906    10.929642380    -9.153031331
 C       -0.829576000    10.103932378    -8.068443076
 C       -1.487250900    10.241587091    -6.847735250
 C       -0.435453821    10.746145105   -10.411701789
 C       -0.647047496    11.469484273   -11.524340809
 C        0.068182397    11.286092699   -12.783038142
 C        1.062549867    10.318467008   -12.951247892
 C        1.720976476    10.177794412   -14.172467082
 C        1.392363459    10.997127887   -15.257613129
 C        0.395065187    11.966504043   -15.091962748
 C       -0.255601327    12.109972672   -13.869100891
Si        2.261064346    10.814965082   -16.876609411
 C        2.865980347     9.058667021   -17.088176703
 C        1.090805754    11.223311943   -18.276329948
 C        3.712824821    11.991231810   -16.900518015
 C       -2.764678382    10.201211520    -3.808496377
 C       -5.205279340    11.174393944    -5.360771065
 C       -5.292121225    12.676346200    -0.971202674
 C       -4.400227235    12.936710769     1.934227985
 C       -0.606266759    -0.886418441    -1.530204638
 C       -0.627183628    -0.867426507     1.531511763
 H        1.237906042     2.696821050     0.512108309
 H        0.331321209     4.948837290     0.499318390
 H       -3.565131395     3.419883119    -0.504088522
 H       -2.699539397     1.147367499    -0.505675360
 H       -3.328902609     5.726958451    -0.254949276
 H       -0.510487966     6.788728940     0.465272045
 H       -4.169763502     7.564088619    -0.290026478
 H       -5.078193554     9.816442057    -0.305798939
 H       -1.140813551    11.372369280     0.710582623
 H       -0.274341972     9.096116384     0.713006108
 H       -2.126034247    13.353628419    -1.382340866
 H       -2.310131739    14.873963552     1.341131777
 H       -0.863192579    16.634823175     1.669984488
 H        0.972232854    18.126991981     0.929600638
 H        1.228587020    15.944328477    -2.778966375
 H       -0.582890589    14.461212419    -2.043221505
 H        4.182859492    18.173186404    -2.157734764
 H        3.046900662    17.245158725    -3.179088452
 H        3.682865212    16.538464799    -1.664279765
 H       -1.378625869    20.549953173    -1.295623539
 H       -1.190079138    18.809867669    -0.918883517
 H       -2.777650717    19.471584564    -1.436971318
 H       -0.521524616    18.265436095    -5.344405069
 H       -0.905995173    15.990635242    -6.155238662
 H       -3.327321550    15.152666653    -2.694717310
 H       -2.911157999    17.394699846    -1.844011217
 H       -1.830647297    13.884389707    -5.975845657
 H       -3.607586834    13.309722152    -3.473758969
 H       -3.575105816    12.812823369    -7.696558056
 H       -2.415964799    12.550602642    -9.814446167
 H       -0.057763634     9.344173805    -8.176655601
 H       -1.193166125     9.569425744    -6.036344525
 H        0.315927222     9.950949514   -10.398876551
 H       -1.399244545    12.263820559   -11.537487137
 H        1.332979937     9.663781048   -12.124557437
 H        2.490875524     9.404256664   -14.241697659
 H        0.095110280    12.634336614   -15.904221157
 H       -1.027032977    12.870142612   -13.759910052
 H        0.967197964    19.709929585    -1.160887730
 H        2.565587581    20.062898787    -1.854043419
 H        1.889615691    19.576241269    -4.029834061
 H        0.986465468    18.146264865    -3.546163698
 H       -0.111030945    20.980679989    -2.989251055
 H       -0.318816033    20.204516123    -4.569751098
 H        2.266926960    -1.028968022    -0.060266936
 H        2.277943581     0.457290237     0.918332176
 H        2.271511074     0.560763655    -0.862828343
 H        3.321593382     8.910846232   -18.083492757
 H        2.035695570     8.335609900   -16.992879717
 H        3.627908304     8.793763807   -16.334391225
 H        0.184750420    10.591766856   -18.236388419
 H        0.764099797    12.277274806   -18.243748917
 H        1.568472795    11.055999731   -19.258073893
 H        4.423294249    11.769661862   -16.083835029
 H        4.267513044    11.927260388   -17.853001966
 H        3.383942796    13.038411428   -16.774372214
 H       -1.702813752    10.373942768    -3.553678811
 H       -3.336948700    10.276026426    -2.864762042
 H       -2.860658006     9.159951221    -4.162861665
 H       -5.607379064    11.904757006    -6.085138400
 H       -5.411954424    10.165165428    -5.759949046
 H       -5.776744768    11.286135057    -4.423016915
 H       -5.069354706    12.241904324    -1.961690284
 H       -6.190487855    12.165847689    -0.581924602
 H       -5.557692230    13.738348220    -1.126364901
 H       -3.565944367    12.858405132     2.654829733
 H       -4.797391053    13.965586825     1.989749039
 H       -5.195951312    12.254282934     2.283327465
 H       -0.282674470    -0.363667549    -2.448715315
 H       -0.213303618    -1.917372856    -1.578383812
 H       -1.708181104    -0.949641886    -1.556625053
 H       -0.280840843    -0.359772517     2.450055755
 H       -1.731268112    -0.884699731     1.561983151
 H       -0.274986417    -1.913009026     1.575211763

