139   

Si        0.000000000     0.000000000     0.000000000
 C        1.869356785     0.000000000     0.000000000
 C       -0.634762445     1.733706388     0.000000000
 C        0.055813940     2.742723540    -0.680534741
 C       -0.421520366     4.052837699    -0.682035879
 C       -1.603291637     4.383293801    -0.012711910
 C       -2.296350893     3.370808140     0.663340592
 C       -1.819841926     2.062090987     0.669738562
 C       -2.141366046     5.739485634     0.013466877
 C       -1.575775675     6.799560591    -0.588328507
 C       -2.115956800     8.155017187    -0.560650558
 C       -3.298556054     8.480364749     0.110376128
 C       -3.779804650     9.788792337     0.111734491
 C       -3.086015576    10.800631391    -0.560191580
 C       -1.901925451    10.478778065    -1.234154266
 C       -1.424480009     9.170475354    -1.233926715
Si       -3.721346086    12.531719425    -0.559262824
 C       -2.316217927    13.641759815    -0.943974750
 C       -2.238522115    14.475959302    -1.988791780
 C       -1.089529893    15.345826761    -2.253276097
 C       -1.116148707    16.180963262    -3.379916779
 C       -0.052714334    17.020640803    -3.670509848
 C        1.067524898    17.062139197    -2.818253642
 C        1.106265553    16.218461440    -1.699865566
 C        0.048053073    15.354270510    -1.441945755
 N        2.126782940    17.944083752    -3.170313749
 C        1.747010189    19.372828452    -3.183959012
 C        3.406448506    17.706040225    -2.479337180
 C        1.338961224    19.946853701    -1.813643070
 C       -0.192651610    20.028144572    -1.658625346
 N       -0.671569267    20.100701500    -0.260610487
 C       -0.585615867    18.827102417     0.395778028
 C       -1.674556006    17.961980320     0.201045143
 C       -1.676170665    16.710920357     0.797773822
 C       -0.604954252    16.296822702     1.605147866
 C        0.466121163    17.171072236     1.803518079
 C        0.477498377    18.432101435     1.214002600
 C       -0.077745421    21.213624789     0.501260047
 C       -0.659698873    14.962916576     2.211220683
 C        0.297844994    14.456489590     2.998018551
Si        0.276756782    12.797555605     3.778512872
 C        0.356348953    13.022690976     5.606600087
 C       -0.126128369    14.198779032     6.194192305
 C       -0.067753032    14.372537984     7.574638026
 C        0.465867212    13.374505624     8.400824854
 C        0.942029496    12.200068556     7.811085499
 C        0.887682251    12.024022108     6.428846868
 C        0.505263400    13.603442417     9.841621981
 C        0.991864127    12.732253009    10.741734832
 C        1.030858644    12.962040607    12.182390390
 C        0.554726593    14.136339215    12.771800452
 C        0.611531162    14.314203654    14.153876756
 C        1.154294912    13.322669525    14.977705747
 C        1.632877413    12.144925991    14.389311102
 C        1.568342910    11.967013765    13.009704879
Si        1.234111817    13.548412388    16.808438426
 C        1.222221082    15.367957525    17.237796823
 C       -0.253237834    12.711670686    17.569362417
 C        2.804297897    12.779998659    17.471422157
 C       -1.261841869    11.835587895     3.346797638
 C        1.777138877    11.868008103     3.164639820
 C       -5.087903139    12.675328728    -1.821476388
 C       -4.363063945    12.993850970     1.133840991
 C       -0.631797030    -0.853571063    -1.537543675
 C       -0.604051283    -0.907930290     1.518600408
 H        0.984069608     2.545437655    -1.223988786
 H        0.137105761     4.820348378    -1.214916360
 H       -3.218966017     3.606205452     1.190945900
 H       -2.402950640     1.315737530     1.216252139
 H       -3.073506101     5.849997837     0.575733291
 H       -0.644423993     6.689504740    -1.151575818
 H       -3.855064021     7.709655151     0.640513423
 H       -4.708688690     9.982708724     0.654958507
 H       -1.319072150    11.232149592    -1.775524673
 H       -0.502617424     8.937489545    -1.763977553
 H       -1.488738382    13.566743428    -0.216581479
 H       -3.039368255    14.576047807    -2.732349238
 H       -1.983175775    16.170390163    -4.040011661
 H       -0.073360142    17.642616615    -4.562277071
 H        1.951968959    16.234513752    -1.018391565
 H        0.105915319    14.697199445    -0.570405919
 H        4.190136416    18.309452740    -2.969327934
 H        3.691927801    16.645664724    -2.599135294
 H        3.399883108    17.950868652    -1.405870015
 H       -0.350394540    22.160396560     0.003982097
 H        1.016417172    21.176857053     0.603636123
 H       -0.522478137    21.231127286     1.511935740
 H       -2.506664026    18.283044733    -0.424291374
 H       -2.521517129    16.041469613     0.631046797
 H        1.306639866    16.872782752     2.430594545
 H        1.316293638    19.099439654     1.387295463
 H       -1.579295016    14.414132037     1.967034949
 H        1.206828585    15.035520713     3.230949695
 H       -0.554535789    15.011494669     5.598014961
 H       -0.443845252    15.294799804     8.013915219
 H        1.361220963    11.409192657     8.430432228
 H        1.276363285    11.084906101     6.025198398
 H        0.097784200    14.566843104    10.162392658
 H        1.398779234    11.768666540    10.421162183
 H        0.131719307    14.925499930    12.152594540
 H        0.221202232    15.253206046    14.556007093
 H        2.067706432    11.335624504    14.982405487
 H        1.943193932    11.043783141    12.571553282
 H        2.613304912    19.941443336    -3.592175750
 H        0.926818687    19.504031443    -3.924737782
 H        1.758547071    19.319187223    -1.002922319
 H        1.784235562    20.947687593    -1.676870987
 H       -0.586768796    20.923409383    -2.187739329
 H       -0.672203427    19.140285455    -2.135413954
 H        2.268168158    -1.028193087     0.061762613
 H        2.269309454     0.563744742     0.862372910
 H        2.279496269     0.458700720    -0.916642821
 H        1.345830901    15.522096935    18.324600705
 H        0.275050810    15.852223899    16.942261622
 H        2.045086382    15.904135346    16.731286814
 H       -1.196010991    13.145278817    17.189650022
 H       -0.271123666    11.631968565    17.335985170
 H       -0.255940591    12.816529353    18.668479827
 H        3.696255343    13.202803321    16.974331999
 H        2.911098094    12.961299451    18.555667969
 H        2.823380446    11.687282188    17.315640908
 H       -2.179157460    12.376400940     3.640000601
 H       -1.315958900    11.628124902     2.261657914
 H       -1.280250411    10.858544680     3.863996204
 H        2.714798400    12.362680950     3.473937527
 H        1.801473358    10.835083227     3.554178685
 H        1.782473619    11.804482956     2.060700601
 H       -4.729011027    12.417692726    -2.834759993
 H       -5.923628112    11.991382124    -1.588684210
 H       -5.497958842    13.700033278    -1.861055511
 H       -3.593267710    12.848139780     1.914109386
 H       -4.675291882    14.053529127     1.166960239
 H       -5.238590190    12.382958014     1.414617782
 H       -0.286712596    -0.340813591    -2.453350640
 H       -0.284043029    -1.900246710    -1.588936350
 H       -1.736351136    -0.866372378    -1.564850824
 H       -0.316334007    -0.376368598     2.443717124
 H       -1.702882304    -1.014936423     1.522121362
 H       -0.174101881    -1.924027842     1.572992167

