139   

Si        0.000000000     0.000000000     0.000000000
 C        1.869551511     0.000000000     0.000000000
 C       -0.640153175     1.731824649     0.000000000
 C        0.136377423     2.786613524    -0.490628270
 C       -0.355260819     4.091749740    -0.486755754
 C       -1.634981451     4.371828392    -0.000104072
 C       -2.413603516     3.313150798     0.486220084
 C       -1.924592920     2.009374530     0.485484856
 C       -2.191108398     5.720729252     0.023758986
 C       -1.551151935     6.820287160    -0.409124630
 C       -2.108396068     8.168723866    -0.384728384
 C       -1.330545591     9.228530707    -0.868586898
 C       -1.821048203    10.532158504    -0.864953621
 C       -3.097923554    10.809331362    -0.362394003
 C       -3.875626611     9.752181016     0.123327770
 C       -3.387277007     8.446703999     0.106867245
Si       -3.762838353    12.532802255    -0.350554482
 C       -4.917765165    12.718072663    -1.764459812
 C       -5.189153452    11.728014089    -2.624656139
 C       -6.101696139    11.827718324    -3.765671221
 C       -6.276141304    10.692692461    -4.573290825
 C       -7.124375298    10.719261151    -5.667664414
 C       -7.789043026    11.910669676    -6.017245659
 C       -7.611872181    13.049609820    -5.220007118
 C       -6.788239746    12.997141474    -4.098537673
 N       -8.644643290    11.862758524    -7.153542538
 C       -7.961215512    11.552445772    -8.425916242
 C       -9.603351339    12.973564643    -7.277233976
 C       -7.179014161    12.735808711    -9.026165451
 C       -5.844596674    12.315878532    -9.668498069
 N       -4.723187910    12.112620680    -8.729211085
 C       -4.509678447    13.123795806    -7.773529631
 C       -4.734396717    14.472004937    -8.126718799
 C       -4.529946315    15.481556109    -7.200418594
 C       -4.033050020    15.200310146    -5.921255611
 C       -3.774184751    13.867793971    -5.585867288
 C       -4.001040904    12.841571281    -6.492118374
 C       -4.585696409    10.723625627    -8.261560226
 C       -3.835765500    16.303964391    -4.981394941
 C       -3.367028685    16.142378853    -3.737854647
Si       -3.094020200    17.468846762    -2.508622463
 C       -4.184025953    17.007356537    -1.089102060
 C       -5.421231355    16.402824454    -1.350766681
 C       -6.265121553    16.043268911    -0.304352482
 C       -5.892343196    16.274130036     1.026851032
 C       -4.657138789    16.875224291     1.283946599
 C       -3.809998506    17.239218944     0.237079001
 C       -6.812282296    15.878980048     2.088081784
 C       -6.582717533    16.043772706     3.401766782
 C       -7.505629323    15.647079465     4.460074027
 C       -8.739807532    15.046219167     4.196861698
 C       -9.591951183    14.682663842     5.238885181
 C       -9.223508817    14.903471161     6.570529258
 C       -7.986602578    15.503890927     6.836680154
 C       -7.140847922    15.873393314     5.793565694
Si      -10.353166092    14.421429513     7.949411298
 C      -11.354595677    12.920901940     7.459170128
 C       -9.360421642    14.012291037     9.479752263
 C      -11.495568169    15.857560529     8.301146169
 C       -1.296361918    17.462869238    -2.005522239
 C       -3.584642433    19.151279188    -3.144640839
 C       -4.694557022    12.832619574     1.238559275
 C       -2.372116115    13.768392362    -0.490698663
 C       -0.631196696    -0.860114028    -1.534049341
 C       -0.604420691    -0.896269542     1.525367678
 H        1.144395612     2.630531358    -0.884551491
 H        0.271352568     4.895326072    -0.869734043
 H       -3.413191203     3.509328505     0.870044577
 H       -2.577897417     1.225492868     0.878569462
 H       -3.203761415     5.790408318     0.432193948
 H       -0.538302045     6.750876082    -0.816607744
 H       -0.332251245     9.033624347    -1.255186164
 H       -1.171861414    11.317489880    -1.262928397
 H       -4.880962440     9.908920086     0.526462345
 H       -4.012885289     7.641064764     0.486695404
 H       -5.379234743    13.713104469    -1.856845182
 H       -4.730562908    10.730755259    -2.537507158
 H       -5.752656670     9.768454905    -4.325139384
 H       -7.292866960     9.818494073    -6.253376388
 H       -8.100695912    13.985173696    -5.474081615
 H       -6.665783980    13.893495787    -3.488942263
 H      -10.312310144    12.741780175    -8.090602131
 H       -9.144897574    13.952767993    -7.485455284
 H      -10.190190234    13.048446583    -6.344218038
 H       -4.780118422    10.023514775    -9.089658727
 H       -5.254839630    10.471958695    -7.420312429
 H       -3.539861738    10.557046530    -7.941310168
 H       -5.071490214    14.726236461    -9.126987785
 H       -4.740921388    16.512826338    -7.483957650
 H       -3.398381681    13.616604564    -4.590502869
 H       -3.805668141    11.819170372    -6.181155341
 H       -4.106054771    17.283585443    -5.394744804
 H       -3.104082029    15.139845806    -3.356942312
 H       -5.759913219    16.194705392    -2.372273224
 H       -7.222914866    15.574016499    -0.524357609
 H       -4.344636902    17.064763557     2.309116471
 H       -2.856974543    17.706403373     0.498001211
 H       -7.742923742    15.420902688     1.738950445
 H       -5.653724660    16.502783725     3.752694132
 H       -9.047828102    14.857520202     3.169806854
 H      -10.545283653    14.219319493     4.969742886
 H       -7.644970533    15.700215143     7.856779760
 H       -6.184503325    16.341038775     6.021006503
 H       -7.289488290    10.681795061    -8.261885760
 H       -8.741236938    11.204791379    -9.140635631
 H       -7.799935051    13.255409104    -9.777871023
 H       -6.989997324    13.492456031    -8.235015962
 H       -5.981838219    11.392905454   -10.272946567
 H       -5.518988334    13.101310098   -10.393268018
 H        2.268129013    -1.027842804     0.070014941
 H        2.269938428     0.569970812     0.857943407
 H        2.279134611     0.449842022    -0.921330823
 H      -11.991447159    12.575991417     8.293159122
 H      -10.698737646    12.078882399     7.172334457
 H      -12.018741560    13.132845810     6.603124027
 H       -8.616369937    13.221439507     9.274054898
 H       -8.815045216    14.892602016     9.862505821
 H      -10.013325301    13.649487391    10.293548234
 H      -12.093552116    16.123171131     7.410833705
 H      -12.199557562    15.621491414     9.118336572
 H      -10.929227574    16.758889942     8.597327990
 H       -1.005591236    16.497335165    -1.552894304
 H       -0.639803458    17.627849781    -2.879491133
 H       -1.075587939    18.257711954    -1.272223382
 H       -4.648447467    19.177057435    -3.443069690
 H       -3.442043471    19.929971494    -2.373824462
 H       -2.982639892    19.440904171    -4.024538109
 H       -5.570123707    12.167557486     1.336902913
 H       -4.048725915    12.667988911     2.119301200
 H       -5.066537605    13.874372619     1.293040621
 H       -1.941916690    13.798871774    -1.506633529
 H       -2.733671763    14.785536337    -0.245166010
 H       -1.557235510    13.533964814     0.216616232
 H       -0.284016386    -0.351576584    -2.451504646
 H       -0.283949677    -1.907169930    -1.580467910
 H       -1.735537346    -0.872156600    -1.562940057
 H       -0.312520177    -0.358615859     2.445859090
 H       -1.703844226    -0.996079175     1.533214191
 H       -0.179716980    -1.913990531     1.585889574

