139   

Si        0.000000000     0.000000000     0.000000000
 C        1.869775689     0.000000000     0.000000000
 C       -0.621316224     1.738949564     0.000000000
 C        0.096777898     2.745873682    -0.654687445
 C       -0.366942959     4.060631925    -0.658352681
 C       -1.562023816     4.398916672    -0.016947171
 C       -2.282415097     3.388643456     0.633275992
 C       -1.819668428     2.074791946     0.641703005
 C       -2.084062611     5.761669396     0.003968137
 C       -1.486771664     6.815701090    -0.577599087
 C       -2.002964627     8.180330353    -0.560574806
 C       -3.195890355     8.529007224     0.077326282
 C       -3.650726879     9.848127359     0.067425355
 C       -2.922376490    10.845854750    -0.585818786
 C       -1.724979816    10.498882622    -1.227649449
 C       -1.272054972     9.183118309    -1.212870313
Si       -3.487465675    12.602066498    -0.623363127
 C       -2.256196211    13.670143972     0.212612953
 C       -1.117349641    13.232434140     0.766179713
 C       -0.137891580    14.091578974     1.432651620
 C        1.017377739    13.505745102     1.972350721
 C        1.976149777    14.271917547     2.613217444
 C        1.787677440    15.661733004     2.777338161
 C        0.630062572    16.250220870     2.236537536
 C       -0.300950917    15.473137133     1.557930721
 N        2.778804926    16.416826078     3.432876251
 C        3.410206848    15.790239595     4.608451555
 C        2.510080617    17.851013663     3.625086435
 C        2.404165138    15.368707734     5.698984646
 C        3.049432726    15.337527078     7.095975264
 N        2.852805533    16.569774320     7.892998969
 C        3.375703638    17.741791851     7.284624135
 C        4.764986239    17.788109852     7.049290479
 C        5.334020145    18.904091191     6.459020870
 C        4.552151135    20.018758410     6.116933748
 C        3.180765795    19.977557892     6.376388188
 C        2.593775401    18.859950721     6.961012234
 C        1.483551341    16.681848577     8.425764891
 C        5.205344350    21.173049818     5.494555710
 C        4.563856420    22.289305930     5.126045898
Si        5.345622677    23.752303772     4.345670771
 C        5.070277838    25.216560750     5.432744647
 C        4.713342024    25.051575106     6.776216421
 C        4.506822320    26.161646275     7.591942094
 C        4.659419647    27.459895996     7.088293882
 C        5.020768269    27.620273759     5.747184123
 C        5.225313000    26.511719723     4.926923856
 C        4.432061255    28.591039275     7.982076011
 C        4.541890685    29.881823799     7.624823802
 C        4.314748771    31.013539658     8.517821820
 C        3.953339480    30.854995602     9.859232204
 C        3.746147687    31.964517266    10.676928185
 C        3.897475734    33.261127180    10.170222372
 C        4.259387839    33.422219337     8.828302832
 C        4.464922113    32.311152623     8.012994479
Si        3.616078687    34.710661252    11.278309937
 C        1.853679107    34.656061196    11.898073742
 C        4.805157684    34.605264835    12.716437597
 C        3.898556687    36.314384683    10.360952497
 C        7.182937416    23.513022746     4.120233654
 C        4.527431627    24.021972196     2.687902996
 C       -3.660146978    13.144675743    -2.403092029
 C       -5.127039228    12.795453904     0.251977850
 C       -0.634979509    -0.852562957    -1.536379443
 C       -0.607825729    -0.901963541     1.520406859
 H        1.036609133     2.543472544    -1.175994988
 H        0.213398087     4.825854975    -1.171032767
 H       -3.215748449     3.629800011     1.138872746
 H       -2.424115498     1.330320895     1.167045852
 H       -3.028778923     5.882499557     0.541973931
 H       -0.542252778     6.692060945    -1.116121115
 H       -3.782752082     7.769778765     0.590849872
 H       -4.589280749    10.060893911     0.586431947
 H       -1.113616156    11.238294480    -1.755098190
 H       -0.339953897     8.931958234    -1.715747113
 H       -2.526389784    14.736882405     0.229636919
 H       -0.828603372    12.170746033     0.765727567
 H        1.170132607    12.429793508     1.877119322
 H        2.877770424    13.796981300     2.989592337
 H        0.448831695    17.315461600     2.337905138
 H       -1.182509161    15.955966688     1.134378708
 H        3.390435981    18.335972737     4.087635259
 H        1.638400697    18.057930694     4.266023272
 H        2.362671850    18.330889471     2.641318302
 H        1.268851298    15.788613300     9.038822434
 H        0.700569020    16.770218254     7.656514959
 H        1.422958384    17.554744869     9.099456781
 H        5.387930872    16.945968681     7.343771463
 H        6.408142030    18.920441908     6.271643896
 H        2.552158667    20.833296220     6.124610618
 H        1.523377193    18.860602322     7.145066758
 H        6.286330922    21.036586671     5.358148659
 H        3.476981943    22.397826206     5.274446741
 H        4.584630908    24.061051250     7.224976838
 H        4.225691320    26.014662143     8.633328362
 H        5.146041049    28.618356411     5.331269042
 H        5.504890990    26.699721531     3.886645920
 H        4.155086019    28.317268150     9.004454503
 H        4.818994378    30.155108923     6.602286359
 H        3.830180154    29.857214667    10.276815560
 H        3.464494212    31.776988179    11.717033617
 H        4.391782643    34.409912278     8.378377209
 H        4.745680963    32.457632051     6.971545281
 H        3.997644707    14.910084067     4.262665696
 H        4.159169224    16.505999501     5.020018620
 H        1.536269215    16.055798620     5.695088095
 H        1.980385140    14.377692268     5.449813394
 H        2.640552249    14.486361713     7.686368651
 H        4.143779181    15.149653870     7.020577902
 H        2.269326675    -1.026710434     0.079036540
 H        2.269123130     0.578204317     0.852977215
 H        2.279583473     0.443057577    -0.924402386
 H        1.636406857    35.505860149    12.568814736
 H        1.649256001    33.726996601    12.458991927
 H        1.134087451    34.700082130    11.060359013
 H        4.668654216    33.670461889    13.288369263
 H        5.854341401    34.628868504    12.369626390
 H        4.666463706    35.448253336    13.415993348
 H        3.208070724    36.419021585     9.505216017
 H        3.737648479    37.184727168    11.022294526
 H        4.930172903    36.382556076     9.972022524
 H        7.689354100    23.348083760     5.089026020
 H        7.401150992    22.644661130     3.473462833
 H        7.649004783    24.400383022     3.655001046
 H        3.450851431    24.244011777     2.801248628
 H        4.984624597    24.865485831     2.141595630
 H        4.615859150    23.124632488     2.048762642
 H       -2.696031874    13.083294272    -2.939384734
 H       -4.382264882    12.508342723    -2.945551369
 H       -4.013736903    14.188208918    -2.474827029
 H       -5.051116966    12.509054224     1.316679219
 H       -5.477996912    13.842342042     0.218134137
 H       -5.909029318    12.168848805    -0.211915691
 H       -0.291336496    -0.339378954    -2.452579083
 H       -0.288156692    -1.899447851    -1.589410160
 H       -1.739616136    -0.864558663    -1.561632946
 H       -0.313207762    -0.372002850     2.444289189
 H       -1.707659843    -0.998357823     1.526854457
 H       -0.187345385    -1.921960413     1.574297444

