139   

Si        0.000000000     0.000000000     0.000000000
 C        1.869205312     0.000000000     0.000000000
 C       -0.635142037     1.733973854     0.000000000
 C        0.096231061     2.761856484    -0.604947232
 C       -0.384807862     4.070749099    -0.604072989
 C       -1.611501453     4.379849609    -0.010422418
 C       -2.345668010     3.348658569     0.589955681
 C       -1.864597391     2.041854755     0.596060831
 C       -2.154985538     5.733427305     0.015018579
 C       -1.553118231     6.811069595    -0.516299786
 C       -2.102011400     8.162648451    -0.487584628
 C       -3.329529674     8.464906359     0.107841793
 C       -3.816702978     9.771374568     0.112459991
 C       -3.082529193    10.806294410    -0.475645166
 C       -1.851293188    10.506863807    -1.072750242
 C       -1.369158860     9.200671541    -1.079201242
Si       -3.721834188    12.535925326    -0.472522941
 C       -3.007327443    13.482747367     0.920621935
 C       -2.139885577    13.015780431     1.828050137
 C       -1.600106828    13.824438980     2.925793717
 C       -0.695759062    13.233056874     3.821127840
 C       -0.160270952    13.960084242     4.873675196
 C       -0.535846440    15.300288255     5.061326940
 C       -1.436097375    15.898763446     4.173294244
 C       -1.952838424    15.163236569     3.111310239
 N        0.063436027    15.980596333     6.172542450
 C       -0.623687014    15.665519475     7.444104068
 C        0.258673532    17.426974043     5.966929684
 C       -2.034394248    16.273475729     7.582328526
 C       -2.894826083    15.510912783     8.608044876
 N       -3.827463049    14.523566914     8.024390348
 C       -3.212604189    13.436004157     7.354509341
 C       -2.240437245    12.691387613     8.053276275
 C       -1.611548699    11.619788731     7.441639486
 C       -1.968075754    11.215857732     6.146364885
 C       -2.959116386    11.932803539     5.472196084
 C       -3.583771141    13.024596970     6.065092852
 C       -4.953532350    15.162823563     7.321740250
 C       -1.268028617    10.076408168     5.552214696
 C       -1.510260172     9.590049439     4.328137323
Si       -0.633411866     8.162981862     3.584185630
 C        0.625275390     7.493848347     4.755618400
 C        1.617009107     8.344673511     5.260801210
 C        2.578717263     7.863511044     6.146718160
 C        2.575593520     6.523137662     6.545251941
 C        1.585451964     5.673902078     6.036076295
 C        0.621773500     6.151996404     5.150258575
 C        3.562499133     5.975736606     7.470423355
 C        4.560895039     6.680817387     8.029160017
 C        5.547860844     6.133677097     8.954299718
 C        5.545632705     4.794327022     9.353907270
 C        6.508394650     4.313349186    10.240554771
 C        7.501867632     5.161211783    10.742300828
 C        7.506718317     6.503429580    10.342738809
 C        6.539763603     6.982742419     9.462448787
Si        8.776482723     4.524127762    11.916242204
 C        9.125091391     2.721134995    11.564883373
 C       10.363377958     5.494861585    11.728893710
 C        8.119883224     4.714065606    13.655375525
 C       -1.899997362     6.860420560     3.160717281
 C        0.246384176     8.751775266     2.047085346
 C       -3.261156003    13.383034143    -2.072999173
 C       -5.581692311    12.534008618    -0.282540748
 C       -0.632623987    -0.855463537    -1.535756629
 C       -0.603893061    -0.901764326     1.522178808
 H        1.061102816     2.581248998    -1.087099988
 H        0.207062440     4.853568461    -1.075391071
 H       -3.303626444     3.567749824     1.058122916
 H       -2.480243427     1.279931735     1.082050435
 H       -3.128871528     5.824267126     0.505865061
 H       -0.581961679     6.720038586    -1.011129296
 H       -3.923325443     7.677254196     0.568322167
 H       -4.783589192     9.945176188     0.593861441
 H       -1.234426036    11.275189340    -1.548220778
 H       -0.413051345     8.985486707    -1.552976671
 H       -3.363518474    14.525334509     0.960619040
 H       -1.763494205    11.983110788     1.818801239
 H       -0.410652417    12.185774126     3.694831309
 H        0.547416448    13.500595000     5.563058759
 H       -1.733770252    16.934523789     4.303684324
 H       -2.648775932    15.645618927     2.425280203
 H        0.908889025    17.806685530     6.774187441
 H       -0.665039787    18.023342205     5.955690407
 H        0.791052254    17.586809699     5.012949335
 H       -5.423667147    15.903619874     7.990663605
 H       -5.720270359    14.398982208     7.098550992
 H       -4.673520125    15.668806028     6.384180024
 H       -1.986396023    12.957897359     9.075951108
 H       -0.842334053    11.070492840     7.986007072
 H       -3.251340478    11.643949587     4.460604024
 H       -4.335282425    13.567417810     5.500311113
 H       -0.512311595     9.641788403     6.223289020
 H       -2.280409602    10.030844339     3.675769057
 H        1.674048349     9.401746235     4.980326945
 H        3.338936487     8.543368189     6.526778589
 H        1.565890515     4.626767039     6.332200474
 H       -0.125044749     5.441689268     4.783948513
 H        3.439320350     4.911821597     7.693710975
 H        4.684371822     7.744499770     7.805259491
 H        4.786693744     4.112560506     8.974125547
 H        6.453088009     3.256803150    10.517128044
 H        8.258286452     7.212376705    10.700864506
 H        6.559444544     8.029637054     9.165065722
 H       -0.674369542    14.553820480     7.528014622
 H        0.030359344    16.015262503     8.272202433
 H       -1.958309395    17.336075250     7.871271834
 H       -2.537457451    16.268456438     6.594991907
 H       -2.250477513    14.986907149     9.348776853
 H       -3.502511391    16.231134269     9.202240669
 H        2.267799963    -1.027957261     0.068932625
 H        2.269651836     0.569328569     0.858656207
 H        2.279714889     0.451594187    -0.920071558
 H        9.933425661     2.337303406    12.212345439
 H        9.440521470     2.572283738    10.516254377
 H        8.235836089     2.090410952    11.738460614
 H       10.726829520     5.468247578    10.685575127
 H       10.231229483     6.554417923    12.009401517
 H       11.162387750     5.081249843    12.369554920
 H        7.180037194     4.149799646    13.793584783
 H        8.844451805     4.345123071    14.402284642
 H        7.905578084     5.772019703    13.890996295
 H       -2.412918579     6.484813666     4.063635966
 H       -2.673195770     7.269096242     2.484918025
 H       -1.435106077     5.997863465     2.647962479
 H        1.024787171     9.498198643     2.282906312
 H        0.736548293     7.910943778     1.524460446
 H       -0.461475875     9.217202268     1.334836754
 H       -2.167157934    13.500810736    -2.171749144
 H       -3.614798699    12.805201906    -2.945775961
 H       -3.707608890    14.390996779    -2.138198916
 H       -5.890718930    12.143714613     0.703804845
 H       -5.995560392    13.553671581    -0.376115959
 H       -6.061688670    11.909732551    -1.057167222
 H       -0.288186973    -0.343373563    -2.452294821
 H       -0.283811597    -1.901930661    -1.586526930
 H       -1.737092319    -0.869573090    -1.562485746
 H       -0.310695094    -0.368548592     2.444715567
 H       -1.703146071    -1.003172705     1.530187201
 H       -0.178758665    -1.919826963     1.577919047

