139   

Si        0.000000000     0.000000000     0.000000000
 C        1.872267269     0.000000000     0.000000000
 C       -0.563813527     1.756861539     0.000000000
 C       -0.401255377     2.532173409     1.154208915
 C       -0.819066278     3.860887620     1.178341819
 C       -1.414939119     4.443828515     0.055643802
 C       -1.584703237     3.664516644    -1.094765569
 C       -1.168675603     2.334618386    -1.121710915
 C       -1.864598570     5.832075545     0.044794978
 C       -1.752215416     6.668142770     1.090844597
 C       -2.194337085     8.057326643     1.101527550
 C       -2.010536825     8.809728973     2.269967336
 C       -2.415289650    10.140277758     2.331587456
 C       -2.969795090    10.762708827     1.206462850
 C       -3.134312263    10.020905379     0.032123738
 C       -2.751698752     8.680560812    -0.017891099
Si       -3.507001982    12.525029433     1.284574177
 C       -3.687239705    13.130453739    -0.433155968
 C       -4.821958994    13.599926901    -0.967134055
 C       -4.941738626    14.079079909    -2.344943669
 C       -6.187817894    14.547812497    -2.787324853
 C       -6.357726203    15.012270345    -4.079725056
 C       -5.282808725    14.980598010    -4.995569662
 C       -4.034320875    14.510360350    -4.554969923
 C       -3.870781374    14.086720422    -3.240753226
 N       -5.500072057    15.463180944    -6.299953468
 C       -6.752477257    15.047690768    -6.965408786
 C       -4.342333911    15.526189226    -7.202423534
 C       -7.238281897    13.613535805    -6.692222038
 C       -6.582600016    12.515533511    -7.550608701
 N       -5.625872968    11.632774510    -6.862558278
 C       -5.968411381    11.050456627    -5.638322250
 C       -7.321056192    10.909337671    -5.258754205
 C       -7.651476680    10.330866671    -4.043249049
 C       -6.669730274     9.795452949    -3.198782951
 C       -5.332128580     9.905707695    -3.590919057
 C       -4.978216233    10.525885415    -4.780416538
 C       -4.211496234    11.964332408    -7.078121888
 C       -7.077193083     9.196911047    -1.926814461
 C       -6.230641494     8.655405098    -1.040846111
Si       -6.714885822     7.900808611     0.556337714
 C       -6.169793755     6.136784252     0.535523693
 C       -6.160137223     5.435427826    -0.675859800
 C       -5.753272988     4.103289864    -0.719309408
 C       -5.342892537     3.443933084     0.442996960
 C       -5.346220978     4.150363675     1.652526660
 C       -5.749889229     5.483263752     1.699056150
 C       -4.909484287     2.050374643     0.441639113
 C       -4.861457828     1.268049641    -0.650116827
 C       -4.428678639    -0.125146710    -0.654359575
 C       -4.015192820    -0.787566245     0.504061398
 C       -3.608589200    -2.121167675     0.457188230
 C       -3.620713399    -2.828031656    -0.749233495
 C       -4.036419154    -2.166619009    -1.912519973
 C       -4.429231985    -0.831450187    -1.865042969
Si       -3.084089662    -4.593180010    -0.819345002
 C       -3.202645015    -5.372353737     0.876183117
 C       -4.183573016    -5.535011107    -2.001783376
 C       -1.311994276    -4.658505013    -1.410204430
 C       -5.906045038     8.814381222     1.964533723
 C       -8.570807219     7.933856843     0.785135030
 C       -5.122990632    12.623881678     2.215707196
 C       -2.207102702    13.557352741     2.141563022
 C       -0.620808008    -0.883421931    -1.519696425
 C       -0.600697559    -0.856563930     1.548897048
 H        0.053631314     2.130834209     2.063665251
 H       -0.681098582     4.443368895     2.087219912
 H       -2.056127507     4.095858208    -1.975767478
 H       -1.338275990     1.770932983    -2.043011538
 H       -2.325417174     6.161119177    -0.891021145
 H       -1.302561395     6.326633408     2.027775571
 H       -1.560366715     8.346228119     3.145189071
 H       -2.267244075    10.671255402     3.275193600
 H       -3.564285883    10.462242824    -0.874669712
 H       -2.887659072     8.118484328    -0.940816584
 H       -2.756381079    13.085028197    -1.020548063
 H       -5.765736023    13.653375469    -0.408009990
 H       -7.036641009    14.554622788    -2.102162724
 H       -7.320074027    15.411941731    -4.388539356
 H       -3.182427850    14.481445387    -5.225778370
 H       -2.888658745    13.736728726    -2.917904370
 H       -4.611114488    16.119409710    -8.094255868
 H       -3.975616721    14.543776818    -7.534414858
 H       -3.516844512    16.067189056    -6.703973543
 H       -4.067188802    12.423721561    -8.068942464
 H       -3.616487341    11.030714682    -7.073793675
 H       -3.808711454    12.643832274    -6.305854720
 H       -8.115042047    11.252371581    -5.913383410
 H       -8.701458452    10.271966547    -3.754728859
 H       -4.543676723     9.507801433    -2.949159737
 H       -3.926112319    10.608109648    -5.031673308
 H       -8.161759241     9.236443588    -1.761760256
 H       -5.146200122     8.629771076    -1.231088670
 H       -6.464173193     5.901913406    -1.618767049
 H       -5.753763868     3.578858368    -1.672728465
 H       -5.019122945     3.658561530     2.566297641
 H       -5.718308607     5.988234124     2.667921359
 H       -4.603511165     1.665252678     1.418754232
 H       -5.158115833     1.657795851    -1.627897902
 H       -4.008186299    -0.261757949     1.457876728
 H       -3.294194810    -2.584334795     1.396717930
 H       -4.067874813    -2.667753116    -2.883485553
 H       -4.745719062    -0.334070183    -2.779752926
 H       -7.537787000    15.763557445    -6.613509829
 H       -6.659987901    15.215655074    -8.060039611
 H       -7.109852599    13.368070093    -5.615031057
 H       -8.334926153    13.585778832    -6.850226278
 H       -7.380561232    11.849256112    -7.964503523
 H       -6.082999401    12.967245930    -8.435285020
 H        2.273325879    -1.027464577     0.034438293
 H        2.274533681     0.547561266     0.870020081
 H        2.272035106     0.485211732    -0.908268074
 H       -2.950253352    -6.447047274     0.839159035
 H       -4.225375686    -5.286928654     1.285747540
 H       -2.512751899    -4.896652303     1.594989245
 H       -5.246502154    -5.451352847    -1.710609631
 H       -4.092324840    -5.157757813    -3.035220874
 H       -3.927740520    -6.609151109    -2.017797480
 H       -0.637256910    -4.128664881    -0.713275771
 H       -0.955349006    -5.700297116    -1.491665483
 H       -1.200274660    -4.188706672    -2.403604787
 H       -4.800734427     8.773016657     1.887160996
 H       -6.194458724     9.880427954     1.970298065
 H       -6.185832399     8.387887191     2.942511106
 H       -9.086724126     7.387507166    -0.024276431
 H       -8.862761885     7.459305547     1.738745730
 H       -8.956474688     8.967984953     0.794730578
 H       -5.925396921    12.079072811     1.683691192
 H       -5.034567575    12.183140469     3.224212277
 H       -5.452787996    13.670820176     2.337231466
 H       -1.227884222    13.472258622     1.636958597
 H       -2.485656565    14.626611343     2.144502318
 H       -2.067654443    13.246780915     3.191386625
 H       -0.270321382    -0.400151677    -2.447620460
 H       -0.279985132    -1.933271782    -1.543653738
 H       -1.729193091    -0.896695362    -1.544333515
 H       -0.088031913    -0.475661626     2.448571289
 H       -1.685262467    -0.701205974     1.692077678
 H       -0.423512514    -1.944965251     1.495523834

