139   

Si        0.000000000     0.000000000     0.000000000
 C        1.869484942     0.000000000     0.000000000
 C       -0.626318849     1.736852430     0.000000000
 C        0.048494031     2.732021467    -0.716083046
 C       -0.419883826     4.045225511    -0.719665259
 C       -1.576927910     4.393111735    -0.016644100
 C       -2.254166987     3.394568155     0.695149541
 C       -1.786454120     2.082558447     0.703579257
 C       -2.104360695     5.753502765     0.008421402
 C       -1.550967690     6.800883905    -0.626163678
 C       -2.079911596     8.160722500    -0.599932551
 C       -3.237833656     8.505090067     0.104551834
 C       -3.708528769     9.816562813     0.102974393
 C       -3.033917130    10.814279285    -0.612267813
 C       -1.876460955    10.472255975    -1.319323077
 C       -1.404878699     9.160877749    -1.310595822
Si       -3.686862372    12.540188632    -0.591176249
 C       -3.630264648    13.202690829     1.115448168
 C       -3.180205892    12.526500490     2.181041890
 C       -3.137611361    13.061563000     3.542151536
 C       -2.641888411    12.248774347     4.572830093
 C       -2.579339449    12.705034523     5.878477301
 C       -2.973580898    14.024940318     6.193783589
 C       -3.470976485    14.841656862     5.160053749
 C       -3.567666467    14.351373554     3.864131338
 N       -2.901880898    14.465400358     7.522328654
 C       -1.766966864    14.003160795     8.337985939
 C       -3.343051343    15.836110267     7.809102245
 C       -0.374218171    14.172502565     7.702701245
 C        0.172278983    15.610636160     7.724992675
 N        0.466897377    16.182102082     9.055069042
 C       -0.630935245    16.817261961     9.688900176
 C       -1.176982455    17.948583441     9.048717229
 C       -2.250537866    18.617015331     9.613087624
 C       -2.792036444    18.206096291    10.841076087
 C       -2.227118574    17.103032319    11.485464067
 C       -1.150533022    16.420017818    10.929579349
 C        1.287096416    15.307271740     9.906353802
 C       -3.927752875    18.948545946    11.393593455
 C       -4.525148003    18.649292976    12.554042655
Si       -5.946308266    19.549259943    13.282102844
 C       -7.338947199    18.352287322    13.458519758
 C       -7.393399957    17.211172685    12.648577950
 C       -8.442529567    16.304663834    12.777909992
 C       -9.465430017    16.519695692    13.710945805
 C       -9.410229795    17.662847060    14.513794815
 C       -8.359355202    18.571061657    14.389506528
 C      -10.542992993    15.540396136    13.808371722
 C      -11.578962656    15.624545187    14.660107451
 C      -12.655978745    14.644585003    14.756628291
 C      -12.709953833    13.502180745    13.953397773
 C      -13.758275448    12.591218807    14.079047324
 C      -14.773649541    12.798748280    15.018636861
 C      -14.721578426    13.942786910    15.825206116
 C      -13.677548461    14.854834928    15.692203375
Si      -16.164266067    11.596195926    15.189706447
 C      -15.611980510     9.892312482    14.654294212
 C      -16.721597606    11.518486629    16.972590835
 C      -17.575502171    12.171386456    14.108683618
 C       -5.426950310    20.196387251    14.955214261
 C       -6.504794067    20.960290442    12.195670507
 C       -2.667564408    13.654326842    -1.692020249
 C       -5.458610608    12.527208884    -1.184736561
 C       -0.633754265    -0.852025800    -1.537483904
 C       -0.606250947    -0.907258073     1.518018252
 H        0.956923010     2.520868334    -1.287155506
 H        0.126705561     4.801717323    -1.280073445
 H       -3.157520247     3.643356265     1.249256286
 H       -2.356306266     1.347712064     1.278863849
 H       -3.017113366     5.878701826     0.598625738
 H       -0.639093819     6.675733261    -1.217375038
 H       -3.782082147     7.746123286     0.663779850
 H       -4.617528519    10.026612869     0.675925421
 H       -1.308456973    11.209560613    -1.893051151
 H       -0.501243956     8.914798314    -1.864952311
 H       -4.005129185    14.233046663     1.208944572
 H       -2.797254498    11.497407622     2.110685081
 H       -2.311047152    11.234088293     4.346028114
 H       -2.229567544    12.040278286     6.662723064
 H       -3.785940706    15.860415020     5.360275329
 H       -3.971261815    14.998270998     3.084063213
 H       -3.312468083    16.022939557     8.898924269
 H       -4.396967357    15.952789707     7.496503400
 H       -2.733895682    16.611189633     7.316157679
 H        2.189020316    15.007559493     9.344126039
 H        0.775133091    14.397124816    10.255329415
 H        1.629032239    15.879976633    10.787374874
 H       -0.741059926    18.298186932     8.114548458
 H       -2.668008573    19.485526320     9.102698270
 H       -2.627608097    16.767241802    12.443426797
 H       -0.730158450    15.570453123    11.459691673
 H       -4.248275750    19.785156326    10.758930397
 H       -4.178768311    17.804387902    13.171913722
 H       -6.623687813    16.992644023    11.900523722
 H       -8.466169634    15.420398670    12.143119195
 H      -10.192330045    17.853683110    15.246387195
 H       -8.368862315    19.445498597    15.045836179
 H      -10.456513660    14.696003437    13.117945467
 H      -11.665666457    16.468955184    15.350348387
 H      -11.929681628    13.314200313    13.217792680
 H      -13.746452307    11.717827751    13.421017521
 H      -15.486437609    14.157704145    16.576578720
 H      -13.656329833    15.739135440    16.326606506
 H       -1.801954456    14.518222694     9.324957661
 H       -1.940508184    12.921787800     8.558501113
 H        0.335396436    13.490348622     8.207586015
 H       -0.402726242    13.827885296     6.646749360
 H        1.129863418    15.644153762     7.150793427
 H       -0.531848464    16.283490787     7.186198206
 H        2.268993285    -1.027143842     0.072736011
 H        2.268894865     0.573238045     0.856381775
 H        2.279373650     0.449459542    -0.921288974
 H      -16.407857437     9.144521613    14.820251104
 H      -14.723548027     9.562549368    15.222820646
 H      -15.351974116     9.863716039    13.581638376
 H      -15.881643063    11.259926864    17.642688371
 H      -17.136513573    12.482446529    17.315110731
 H      -17.505590753    10.753228111    17.112942451
 H      -17.273008802    12.225136084    13.047283021
 H      -18.439123976    11.486722165    14.175727356
 H      -17.923088008    13.178126715    14.402553707
 H       -5.169908695    19.371621825    15.644553460
 H       -4.537863421    20.847934323    14.872341308
 H       -6.229301640    20.788540641    15.429185241
 H       -6.813096985    20.601947795    11.196539310
 H       -7.371505702    21.486189033    12.635616240
 H       -5.700698217    21.704218859    12.054052052
 H       -1.622764669    13.723360295    -1.338575379
 H       -2.649186540    13.286192438    -2.732965150
 H       -3.075890724    14.680574382    -1.710729460
 H       -6.100554640    11.912858714    -0.527967498
 H       -5.884857222    13.545537057    -1.206430773
 H       -5.533828242    12.110851731    -2.205406884
 H       -0.289329236    -0.338981062    -2.453351784
 H       -0.286925029    -1.898955801    -1.589938699
 H       -1.738390709    -0.863982947    -1.563629135
 H       -0.315479170    -0.378184951     2.443563524
 H       -1.705572753    -1.009625259     1.522185318
 H       -0.180732405    -1.925315395     1.570566990

