139   

Si        0.000000000     0.000000000     0.000000000
 C        1.869883923     0.000000000     0.000000000
 C       -0.646142266     1.727658297     0.000000000
 C        0.185900833     2.813502035    -0.288010795
 C       -0.318484673     4.113592548    -0.283788121
 C       -1.659093102     4.358392907     0.024545305
 C       -2.491872918     3.269067522     0.312788107
 C       -1.995043891     1.968775063     0.292748116
 C       -2.227993085     5.701670741     0.040699711
 C       -1.536917767     6.820906822    -0.233492513
 C       -2.098447483     8.166905896    -0.219409588
 C       -1.259999411     9.246836759    -0.526349891
 C       -1.749378021    10.549823177    -0.526100290
 C       -3.091092580    10.804901834    -0.214271550
 C       -3.929089503     9.728944434     0.093581613
 C       -3.436520042     8.423942318     0.090007528
Si       -3.725422933    12.536189777    -0.217921440
 C       -4.096038446    13.017908597    -1.946250686
 C       -5.295169642    13.391970500    -2.412621313
 C       -5.557489536    13.771301636    -3.801968136
 C       -6.856465258    14.145379619    -4.172468413
 C       -7.156798229    14.513083595    -5.474976701
 C       -6.146910040    14.569081515    -6.457962167
 C       -4.841763687    14.185622250    -6.085073310
 C       -4.568662579    13.767739764    -4.789838218
 N       -6.421934466    14.939499529    -7.790543334
 C       -7.694128322    15.654703907    -8.030554610
 C       -5.275949959    15.498815012    -8.530982387
 C       -8.090991548    15.708314952    -9.516999633
 C       -8.184604019    14.317071843   -10.176208122
 N       -9.301084972    13.462488159    -9.731648384
 C       -9.104341198    12.824612774    -8.478435270
 C       -7.977043596    11.987157312    -8.348842497
 C       -7.729247193    11.336930704    -7.153766092
 C       -8.614968837    11.458858091    -6.069847788
 C       -9.745075051    12.263043394    -6.213048714
 C       -9.999158707    12.936822825    -7.405207063
 C      -10.622912843    14.070816172    -9.949251793
 C       -8.292213811    10.744271616    -4.835081485
 C       -9.036507555    10.763400726    -3.721590426
Si       -8.584257255     9.847812977    -2.199835449
 C       -6.997926142     8.959778131    -2.512595218
 C       -6.914665841     7.566236677    -2.460120405
 C       -5.702190082     6.919722233    -2.700819828
 C       -4.557060429     7.650099610    -3.028105591
 C       -4.644786442     9.047815146    -3.088991838
 C       -5.847844850     9.697046753    -2.828914078
 C       -3.270442975     7.012812543    -3.287158164
 C       -3.058844982     5.686039748    -3.258886329
 C       -1.774868963     5.043363820    -3.517018616
 C       -0.619021345     5.767239571    -3.824934090
 C        0.587558744     5.112475933    -4.064558541
 C        0.662460496     3.715317783    -4.012617833
 C       -0.493792063     2.988328003    -3.709141685
 C       -1.697209594     3.646021293    -3.463403154
Si        2.273647677     2.876861563    -4.334363356
 C        3.432787689     3.260173992    -2.917170179
 C        2.044944612     1.025527359    -4.459020266
 C        2.987504727     3.516935914    -5.939241628
 C       -8.351626918    11.063625491    -0.799611568
 C       -9.957371641     8.654231244    -1.776136647
 C       -5.235733589    12.666151111     0.873988360
 C       -2.410105679    13.692882128     0.440040293
 C       -0.622436110    -0.852071256    -1.544009629
 C       -0.612860425    -0.896715842     1.520909981
 H        1.245108503     2.687405350    -0.527204014
 H        0.346304697     4.940319526    -0.529800820
 H       -3.540067598     3.438998268     0.550625582
 H       -2.692971083     1.158296111     0.517429284
 H       -3.290641426     5.749107511     0.295184462
 H       -0.475975195     6.769526270    -0.495738339
 H       -0.214879802     9.066663689    -0.769079151
 H       -1.048961090    11.350996811    -0.775281374
 H       -4.987824389     9.864679512     0.333607133
 H       -4.111840873     7.602118125     0.322738233
 H       -3.218606728    12.973942312    -2.611137227
 H       -6.188356215    13.446774008    -1.775831012
 H       -7.655623825    14.131369668    -3.429810298
 H       -8.187677259    14.751056790    -5.723899531
 H       -4.038473031    14.182258263    -6.814567944
 H       -3.555689845    13.447513766    -4.542212721
 H       -5.592242804    15.912419317    -9.500657077
 H       -4.563091636    14.683111165    -8.752995514
 H       -4.749325958    16.293243467    -7.976706191
 H      -10.696343934    14.405200320   -10.998036930
 H      -10.845229705    14.926982007    -9.293819160
 H      -11.400827133    13.300143188    -9.799537617
 H       -7.294443511    11.866892067    -9.187333497
 H       -6.836880746    10.716649466    -7.055483612
 H      -10.445974918    12.369784524    -5.385464190
 H      -10.886043560    13.556047184    -7.482471577
 H       -7.351272424    10.175107259    -4.910552575
 H       -9.973454011    11.333093607    -3.662392282
 H       -7.779452252     6.941352385    -2.225063392
 H       -5.658689562     5.834224408    -2.639677236
 H       -3.760936564     9.636190338    -3.331856730
 H       -5.852944995    10.792901239    -2.886180610
 H       -2.452859265     7.705167031    -3.507656543
 H       -3.875808221     4.995786249    -3.029521254
 H       -0.654271926     6.853942222    -3.874785182
 H        1.457943524     5.732073521    -4.295433668
 H       -0.495025828     1.896738596    -3.648270774
 H       -2.583547307     3.063252233    -3.218710323
 H       -8.505168404    15.110052369    -7.484864552
 H       -7.656974985    16.687593893    -7.618210202
 H       -9.061369003    16.234520776    -9.600304599
 H       -7.374923430    16.327580500   -10.089322534
 H       -8.286561299    14.436374802   -11.279252873
 H       -7.226894873    13.769373621   -10.005164490
 H        2.268412408    -1.028318728     0.054619222
 H        2.271064015     0.556775627     0.865735758
 H        2.277909709     0.463869556    -0.915986570
 H        4.431867994     2.823223711    -3.087307233
 H        3.049109019     2.855247672    -1.963518568
 H        3.561687458     4.349093572    -2.786162023
 H        1.681613480     0.595210525    -3.508816543
 H        1.317182942     0.762586382    -5.247267453
 H        2.996115318     0.522138281    -4.706213054
 H        3.176510290     4.603698125    -5.896938454
 H        3.944026402     3.021874919    -6.180681567
 H        2.296643009     3.335352793    -6.782560473
 H       -7.610860402    11.839245331    -1.068022556
 H       -9.296311173    11.576698773    -0.550958371
 H       -7.995935375    10.554779739     0.113681355
 H      -10.141491323     7.944024254    -2.602726104
 H       -9.718536356     8.065208067    -0.873610200
 H      -10.906451957     9.184873420    -1.584199633
 H       -6.056434110    12.015720391     0.521322532
 H       -4.999794686    12.368164058     1.911619410
 H       -5.618757202    13.701471455     0.906026331
 H       -1.511082579    13.702329928    -0.199488527
 H       -2.785854175    14.730165533     0.495922394
 H       -2.093678988    13.397487838     1.456315830
 H       -0.268505857    -0.338961348    -2.456537747
 H       -0.276781325    -1.899047740    -1.593130935
 H       -1.726355516    -0.862274999    -1.579053132
 H       -0.292175090    -0.380623333     2.444182115
 H       -1.714836485    -0.958010463     1.543467543
 H       -0.222129688    -1.928398956     1.564230435

