139   

Si        0.000000000     0.000000000     0.000000000
 C        1.865848322     0.000000000     0.000000000
 C       -0.589272222     1.748122060     0.000000000
 C       -0.189028733     2.601153314     1.035562091
 C       -0.617016470     3.926106390     1.063625624
 C       -1.419217456     4.441678248     0.040458324
 C       -1.808254818     3.590748676    -1.000321128
 C       -1.404420533     2.256620677    -1.016784982
 C       -1.883235719     5.825855612     0.042283752
 C       -1.584674281     6.708210543     1.010337260
 C       -2.021914985     8.097623539     1.058586374
 C       -2.823228979     8.684453520     0.075816630
 C       -3.210049450    10.021683405     0.177562106
 C       -2.832499170    10.785709134     1.285310845
 C       -2.040701757    10.194083938     2.279276273
 C       -1.637689015     8.868052946     2.164249741
Si       -3.315677379    12.561217525     1.473752491
 C       -2.142883795    13.221506971     2.715690082
 C       -2.471885138    13.756534749     3.897831035
 C       -1.491860200    14.270771388     4.855899089
 C       -1.949129370    14.810743232     6.066173239
 C       -1.062249255    15.310117761     7.005459829
 C        0.328227347    15.236174823     6.779654673
 C        0.788160691    14.690695101     5.570502333
 C       -0.115394219    14.234320744     4.618911736
 N        1.198066151    15.758314958     7.765036927
 C        0.886371398    15.358344745     9.154702848
 C        2.635237445    15.724483765     7.449924596
 C        0.573297391    13.864642942     9.359427417
 C        1.840916285    13.004617145     9.521734173
 N        1.727254590    11.650890840     8.941609320
 C        1.815844712    11.589092469     7.527016759
 C        2.968661981    12.128488505     6.921283691
 C        3.111428878    12.097024769     5.544284276
 C        2.162119082    11.457180927     4.732303583
 C        1.038606271    10.892483631     5.339688188
 C        0.858223902    10.959062022     6.717904832
 C        0.649252727    10.860263772     9.558704262
 C        2.374019391    11.461142031     3.283277515
 C        1.557976513    10.894068035     2.385074639
Si        1.862367405    10.923170017     0.578437444
 C        2.015424829     9.216995272    -0.104042204
 C        3.219528841     8.518724784     0.059442548
 C        3.362103586     7.229932926    -0.445623274
 C        2.303745134     6.599235602    -1.114588091
 C        1.101713423     7.293620247    -1.268385532
 C        0.957506778     8.588095253    -0.766566282
 C        2.513907899     5.247679552    -1.621576018
 C        1.602734394     4.515796881    -2.284229835
 C        1.842093442     3.163588120    -2.780445693
 C        3.062578049     2.504022126    -2.604549870
 C        3.253974600     1.212550917    -3.092567269
 C        2.232264184     0.555864447    -3.789178716
 C        1.012026294     1.215885130    -3.973164856
 C        0.819818996     2.501998075    -3.471778859
Si        2.520795806    -1.155543570    -4.421893939
 C        3.142960393    -2.229709657    -3.024234068
 C        0.936537380    -1.886296932    -5.094085092
 C        3.797885087    -1.074938466    -5.783432454
 C        0.428952430    11.794570613    -0.242619081
 C        3.429965757    11.868598275     0.186003897
 C       -3.088266711    13.479952358    -0.134669283
 C       -5.089063518    12.670222437     2.038665427
 C       -0.659211237    -0.919821974    -1.485987221
 C       -0.625943995    -0.836204460     1.552939480
 H        0.458161050     2.263564073     1.850139387
 H       -0.300394601     4.566125903     1.885906020
 H       -2.437268528     3.969116456    -1.802904705
 H       -1.745604377     1.634694457    -1.848256331
 H       -2.507687810     6.109575310    -0.807386113
 H       -0.952215174     6.406719910     1.853717028
 H       -3.144336942     8.101628859    -0.784691330
 H       -3.820765543    10.434341668    -0.628618948
 H       -1.721655258    10.743416949     3.173362252
 H       -1.015600817     8.425128670     2.941231736
 H       -1.087602624    13.147198853     2.399457928
 H       -3.509374709    13.850959033     4.242079467
 H       -3.019340001    14.853439566     6.268894145
 H       -1.439908219    15.760901114     7.918908085
 H        1.851726885    14.599685443     5.367465659
 H        0.270133301    13.816317361     3.685704983
 H        3.201146980    16.223936161     8.253597763
 H        2.811307888    16.305405786     6.525419646
 H        3.041228842    14.709325766     7.308055663
 H        0.776967167    10.874266040    10.654801380
 H        0.741823032     9.807709087     9.235362662
 H       -0.365829783    11.216739107     9.322790005
 H        3.750423138    12.561386285     7.540564898
 H        3.993740256    12.548372026     5.090226648
 H        0.280182509    10.398620057     4.730028881
 H       -0.042660547    10.535550908     7.151795944
 H        3.294303981    11.988016261     2.994168223
 H        0.642206134    10.364041404     2.689471770
 H        4.076825865     8.953027877     0.581389630
 H        4.306090589     6.705389099    -0.313015123
 H        0.259736843     6.822555572    -1.772866855
 H       -0.012711162     9.075219103    -0.907322863
 H        3.509930748     4.839902622    -1.421248172
 H        0.600430805     4.908629756    -2.477406832
 H        3.876419119     2.995785105    -2.074081067
 H        4.228143879     0.748134761    -2.916321906
 H        0.180420140     0.755290092    -4.512542525
 H       -0.139926463     2.995738075    -3.615741030
 H        1.719582338    15.674791013     9.818319993
 H        0.004007227    15.966207768     9.470271164
 H       -0.079840216    13.742804079    10.242239282
 H       -0.027679103    13.487901461     8.504820161
 H        2.718540999    13.513692098     9.067292639
 H        2.088137067    12.882210384    10.600667477
 H        2.274332072    -1.023226490    -0.053485322
 H        2.272438395     0.480033156     0.906932368
 H        2.255928598     0.562801910    -0.871558356
 H        3.335851766    -3.261268966    -3.366770830
 H        2.403379116    -2.283186390    -2.204157183
 H        4.082916476    -1.838982032    -2.596937123
 H        0.145675821    -1.915496929    -4.322946920
 H        0.551624525    -1.304953231    -5.950309221
 H        1.094315842    -2.921809959    -5.444583834
 H        4.749009737    -0.645534898    -5.421485888
 H        4.017247846    -2.077475670    -6.190256173
 H        3.450889422    -0.443647157    -6.621473306
 H       -0.513373270    11.234448981    -0.091501504
 H        0.289854037    12.812474676     0.162197389
 H        0.588621779    11.885034429    -1.331311483
 H        4.312013725    11.427032374     0.680792584
 H        3.628211474    11.866421230    -0.901064200
 H        3.356365981    12.922412813     0.507186402
 H       -2.058691344    13.371929344    -0.522836305
 H       -3.777830569    13.110540120    -0.913372738
 H       -3.281137944    14.560546449    -0.005916676
 H       -5.244402544    12.126023178     2.988195870
 H       -5.398197744    13.718591358     2.198637767
 H       -5.776627953    12.230783401     1.294092210
 H       -0.420440028    -0.381942370    -2.421641043
 H       -0.221110614    -1.930489795    -1.559489565
 H       -1.756062162    -1.034455382    -1.435333931
 H       -0.257418772    -0.329006115     2.461776354
 H       -1.729679768    -0.827036449     1.594819679
 H       -0.298415209    -1.889060178     1.601578667

