139   

Si        0.000000000     0.000000000     0.000000000
 C        1.868591923     0.000000000     0.000000000
 C       -0.672946429     1.718554970     0.000000000
 C        0.159814869     2.840608857     0.026993303
 C       -0.381739141     4.126750544     0.026188454
 C       -1.765134879     4.318465267    -0.001914321
 C       -2.598878894     3.191815641    -0.028519499
 C       -2.061833222     1.907995792    -0.027022716
 C       -2.380944606     5.641093701    -0.004007073
 C       -1.708546259     6.804379836     0.020230764
 C       -2.338772344     8.120932985     0.017777183
 C       -1.526915526     9.261539359     0.044819796
 C       -2.088049626    10.537414112     0.043507906
 C       -3.476841293    10.700953226     0.020682499
 C       -4.291374413     9.561656490    -0.006457836
 C       -3.727124331     8.287938094    -0.010626179
Si       -4.267813061    12.367551085     0.017971005
 C       -5.137882771    12.616955125    -1.577064498
 C       -5.173792067    11.711459939    -2.563422820
 C       -5.865776842    11.902180676    -3.839663241
 C       -5.821537122    10.866353900    -4.787002861
 C       -6.457688596    10.992131928    -6.010079631
 C       -7.198894659    12.154408589    -6.306561557
 C       -7.245970314    13.190641190    -5.363503636
 C       -6.568172963    13.066470483    -4.154222358
 N       -7.827626098    12.222071240    -7.578314359
 C       -8.837625324    11.165668233    -7.811540498
 C       -8.299678900    13.555566707    -7.989396224
 C      -10.026188306    11.181474722    -6.833751050
 C       -9.779351692    10.269609703    -5.615177062
 N      -10.603891677    10.618126407    -4.445666452
 C      -11.998287332    10.559460577    -4.607184010
 C      -12.563380514     9.554441680    -5.423068048
 C      -13.935139301     9.479851888    -5.594870055
 C      -14.799975238    10.363844501    -4.932887593
 C      -14.240680679    11.337694765    -4.101334840
 C      -12.866063672    11.435981792    -3.928243600
 C      -10.060666213    11.749930171    -3.677333831
 C      -16.241649060    10.238800250    -5.152045029
 C      -17.162885623    11.023174735    -4.577009948
Si      -18.971515073    10.890297062    -4.832098054
 C      -19.596177317    12.478779556    -5.533503261
 C      -18.714228492    13.434102456    -6.048022305
 C      -19.196845789    14.631531739    -6.575890449
 C      -20.568542713    14.896213524    -6.607898329
 C      -21.450478668    13.934585343    -6.096075689
 C      -20.972074845    12.739296278    -5.566071564
 C      -21.120028911    16.133808150    -7.149946616
 C      -20.389417306    17.134846757    -7.669778094
 C      -20.943337750    18.371663771    -8.211293454
 C      -22.316718525    18.633477651    -8.239037320
 C      -22.803802852    19.828430454    -8.765549442
 C      -21.925607392    20.792294306    -9.276227210
 C      -20.550957408    20.532969640    -9.249217554
 C      -20.067133389    19.336693974    -8.723243443
Si      -22.602020516    22.364856606    -9.966723796
 C      -23.674066630    21.954585772   -11.441706805
 C      -23.621583137    23.212272616    -8.649224393
 C      -21.221229557    23.504350356   -10.504007852
 C      -19.400313649     9.510229594    -6.014788852
 C      -19.768494263    10.579348127    -3.170631226
 C       -5.505488735    12.465315198     1.413269270
 C       -2.991088706    13.716266930     0.214631444
 C       -0.611579210    -0.880563951    -1.531313436
 C       -0.614357760    -0.878638916     1.531113369
 H        1.249432534     2.752792586     0.049192154
 H        0.288324102     4.984399775     0.047720046
 H       -3.679735339     3.319741909    -0.050010922
 H       -2.762106627     1.067989005    -0.047760065
 H       -3.475299153     5.632774401    -0.026932943
 H       -0.615336609     6.817728147     0.043979412
 H       -0.443958912     9.154375535     0.066318511
 H       -1.404521924    11.390634187     0.061758877
 H       -5.384005078     9.627794120    -0.025266371
 H       -4.381375546     7.418045311    -0.033339580
 H       -5.640581779    13.590947806    -1.672378393
 H       -4.673210772    10.734036439    -2.488567827
 H       -5.266343823     9.954023484    -4.562912869
 H       -6.379160589    10.200738680    -6.752691502
 H       -7.806998653    14.098264543    -5.564255101
 H       -6.602116131    13.891496143    -3.441819570
 H       -8.576138553    13.518494038    -9.058007722
 H       -7.471851765    14.280884186    -7.897341934
 H       -9.164927217    13.929544836    -7.420398811
 H       -8.958729957    11.670565741    -3.617903352
 H      -10.440848636    11.701480285    -2.641059732
 H      -10.305075815    12.733743272    -4.107961730
 H      -11.923053669     8.834118335    -5.924081240
 H      -14.348298681     8.709064283    -6.246209304
 H      -14.890098394    12.037522367    -3.572613625
 H      -12.474338683    12.207154944    -3.272747475
 H      -16.503289148     9.428884086    -5.846291832
 H      -16.871903038    11.825663863    -3.880325649
 H      -17.630167593    13.278891711    -6.054003980
 H      -18.490390040    15.361255452    -6.967493921
 H      -22.522503061    14.121438950    -6.112394927
 H      -21.706930070    12.027121895    -5.180995037
 H      -22.211051618    16.204391988    -7.107942914
 H      -19.298502378    17.064814409    -7.712107781
 H      -23.019848937    17.900397330    -7.847501791
 H      -23.887697249    19.975048972    -8.760923356
 H      -19.818757619    21.248155627    -9.633660111
 H      -18.994196110    19.153707057    -8.711828377
 H       -9.204518133    11.278551578    -8.857180730
 H       -8.318741944    10.181377727    -7.780953116
 H      -10.228164736    12.215291508    -6.495238268
 H      -10.951348619    10.865511406    -7.351792755
 H       -9.970366708     9.205608745    -5.880453227
 H       -8.709087977    10.308973659    -5.303566946
 H        2.265529535    -1.031096101    -0.005223436
 H        2.274956465     0.505118081     0.894404454
 H        2.274078728     0.513903608    -0.889822536
 H      -24.103677704    22.865952043   -11.893252447
 H      -24.512865017    21.293022096   -11.161655696
 H      -23.093261728    21.435671472   -12.225859471
 H      -24.459473028    22.576750803    -8.312310926
 H      -23.008870176    23.448811126    -7.760277767
 H      -24.050230507    24.159862453    -9.020164125
 H      -20.600582137    23.045300570   -11.293945519
 H      -21.621709640    24.451239529   -10.908484029
 H      -20.556788281    23.761294916    -9.659768479
 H      -18.939744123     9.673690641    -7.006276522
 H      -19.050443688     8.532729800    -5.637887813
 H      -20.491704676     9.437260948    -6.168377097
 H      -19.578221096    11.413501170    -2.471175043
 H      -20.862500821    10.463496619    -3.259789023
 H      -19.371647173     9.659004317    -2.704985483
 H       -6.304817336    11.710827438     1.300205742
 H       -5.018867112    12.287704152     2.389717143
 H       -5.989108222    13.456980517     1.457095028
 H       -2.270604919    13.715432447    -0.623677919
 H       -3.462047223    14.715172572     0.241727796
 H       -2.418396992    13.594674698     1.151491410
 H       -0.270248568    -0.368671871    -2.449461744
 H       -0.241273251    -1.920034417    -1.572419033
 H       -1.714684377    -0.917792395    -1.565451087
 H       -0.273546142    -0.366791971     2.449529212
 H       -1.717742793    -0.912708859     1.563704356
 H       -0.246712549    -1.918957013     1.573219952

