139   

Si        0.000000000     0.000000000     0.000000000
 C        1.869261803     0.000000000     0.000000000
 C       -0.642131840     1.731288450     0.000000000
 C        0.118995712     2.779140471     0.528707827
 C       -0.371497332     4.084681235     0.525824529
 C       -1.635042399     4.371519953     0.002138225
 C       -2.398290240     3.320066377    -0.522209181
 C       -1.910139379     2.015895575    -0.522577379
 C       -2.189926195     5.721099986    -0.022494858
 C       -1.563983869     6.814866859     0.444330162
 C       -2.120742922     8.163621261     0.418709869
 C       -1.358456678     9.217695752     0.940576859
 C       -1.848201209    10.521188618     0.937688632
 C       -3.118173599    10.799443588     0.417090743
 C       -3.881357676     9.749959480    -0.104078458
 C       -3.385047229     8.446708231    -0.105145309
Si       -3.768670835    12.525620159     0.412398940
 C       -5.586261324    12.457492586     0.188477960
 C       -6.267112191    13.012963953    -0.822023722
 C       -7.722817061    12.937622733    -0.968222828
 C       -8.325091902    13.560955955    -2.072579780
 C       -9.696476096    13.518960483    -2.256533267
 C      -10.519694650    12.866129301    -1.314552606
 C       -9.920368218    12.236113351    -0.212515493
 C       -8.538129549    12.259907300    -0.059622786
 N      -11.913445167    12.851749821    -1.548961580
 C      -12.534053292    14.177017309    -1.776288229
 C      -12.716967707    11.970357967    -0.686496481
 C      -11.953283073    15.339896233    -0.955340503
 C      -12.073975404    15.115665216     0.562565506
 N      -11.227593786    16.028184692     1.349779592
 C      -11.526158502    17.399188691     1.300210556
 C      -12.849530206    17.833382277     1.068802463
 C      -13.146420851    19.185773886     1.019488718
 C      -12.159583946    20.155859594     1.244326922
 C      -10.856085133    19.723877144     1.506308178
 C      -10.537565462    18.373433270     1.544891885
 C       -9.803132051    15.652366925     1.326708506
 C      -12.528548160    21.570819521     1.180079401
 C      -11.671674268    22.581506539     1.377183944
Si      -12.094055263    24.361913028     1.305425212
 C      -11.721264202    25.124822977     2.944039723
 C      -11.478988667    24.326311604     4.067835981
 C      -11.198385498    24.910877643     5.300766572
 C      -11.158785486    26.303961008     5.441498515
 C      -11.405154880    27.098241793     4.317445810
 C      -11.684544961    26.516822527     3.081665455
 C      -10.860504395    26.869213281     6.753528354
 C      -10.790764979    28.184027020     7.022435637
 C      -10.492489289    28.749185722     8.334444386
 C      -10.246006961    27.956509204     9.458949349
 C       -9.964832333    28.539258786    10.694136569
 C       -9.916326491    29.930876407    10.830950657
 C      -10.162295804    30.727128480     9.705524573
 C      -10.449531932    30.142513692     8.474527356
Si       -9.543896712    30.701129456    12.467113720
 C       -8.394344236    29.597037983    13.444244409
 C       -8.724622593    32.363795707    12.222813370
 C      -11.152112126    30.918609202    13.393449462
 C      -11.038435792    25.157446761    -0.015673064
 C      -13.902801298    24.624986975     0.922585619
 C       -3.422126174    13.346561849     2.054308017
 C       -2.938035186    13.472701879    -0.964983923
 C       -0.602095841    -0.898947720    -1.524794097
 C       -0.632018841    -0.859291908     1.534084709
 H        1.113951195     2.617034941     0.952558427
 H        0.242376654     4.882802501     0.939712406
 H       -3.385138907     3.521689602    -0.935103004
 H       -2.550760328     1.237302121    -0.945810269
 H       -3.189048344     5.795822936    -0.462384570
 H       -0.565137998     6.740002980     0.884275687
 H       -0.371446444     9.017891881     1.353471364
 H       -1.208603647    11.302948638     1.356391049
 H       -4.879128935     9.911032687    -0.526012539
 H       -3.996626937     7.646912002    -0.519225672
 H       -6.105579863    11.902197324     0.986995573
 H       -5.779940003    13.573001119    -1.631081253
 H       -7.704230032    14.079955590    -2.804024528
 H      -10.145327239    13.981389258    -3.132790310
 H      -10.522784217    11.720941547     0.529444242
 H       -8.093711607    11.748750565     0.796125204
 H      -13.734465540    11.889875438    -1.108974244
 H      -12.799053317    12.305027454     0.359262670
 H      -12.288386122    10.951953025    -0.701777452
 H       -9.694405362    14.554137769     1.272160986
 H       -9.329178239    15.977871508     2.270319313
 H       -9.249069051    16.083742824     0.476713956
 H      -13.646681978    17.111182682     0.920937740
 H      -14.171676869    19.496997196     0.816747407
 H      -10.068060068    20.457031903     1.687926035
 H       -9.513579727    18.082387622     1.757172628
 H      -13.591615944    21.730063506     0.955174749
 H      -10.609233732    22.389321284     1.599011112
 H      -11.501788880    23.232469131     4.017696024
 H      -11.010235189    24.273970410     6.163295529
 H      -11.380507952    28.183234432     4.400134216
 H      -11.868255101    27.188669740     2.238867498
 H      -10.689235810    26.129696241     7.541583980
 H      -10.962115299    28.923586441     6.234683788
 H      -10.272971443    26.871181416     9.378368939
 H       -9.782718412    27.866765618    11.537064960
 H      -10.137355584    31.819355357     9.751576375
 H      -10.640103732    30.778784968     7.612139810
 H      -12.408364410    14.399804257    -2.864106981
 H      -13.629579537    14.102847389    -1.602899179
 H      -10.888992914    15.498918390    -1.223294887
 H      -12.462478348    16.282285663    -1.237658777
 H      -13.129739571    15.222990745     0.895501536
 H      -11.778981809    14.073608171     0.827632538
 H        2.267510101    -1.027795161    -0.073344451
 H        2.279729708     0.447009348     0.922358999
 H        2.269956678     0.572442158    -0.856177050
 H       -8.092562835    30.074597962    14.393393835
 H       -7.472568287    29.377233829    12.875545397
 H       -8.868343220    28.632421813    13.696499596
 H       -7.814431518    32.273795375    11.602593948
 H       -9.398090193    33.083203948    11.725130234
 H       -8.424998282    32.807055105    13.189192115
 H      -11.657074594    29.949339771    13.555466667
 H      -10.987658491    31.379755687    14.383079869
 H      -11.853318400    31.564902714    12.835430149
 H       -9.962566717    25.063065188     0.218349737
 H      -11.206333207    24.682536413    -0.999104673
 H      -11.262573939    26.232996691    -0.121715026
 H      -14.547346238    24.158066769     1.689752813
 H      -14.155022509    25.699987811     0.893030105
 H      -14.174965138    24.191305867    -0.055866279
 H       -3.844460031    12.763551507     2.892821322
 H       -2.338202678    13.452335289     2.235667629
 H       -3.866838916    14.357398318     2.096540992
 H       -3.130789999    13.004798334    -1.947909468
 H       -3.296919230    14.516117355    -1.011916022
 H       -1.842108331    13.503035414    -0.826765621
 H       -0.305478315    -0.365300645    -2.446033440
 H       -0.179197531    -1.917823238    -1.580374202
 H       -1.701607781    -0.996996465    -1.536095077
 H       -0.287316889    -0.348533020     2.451333729
 H       -1.736449429    -0.873336444     1.561160998
 H       -0.283028927    -1.905701524     1.582721799

