139   

Si        0.000000000     0.000000000     0.000000000
 C        1.869018705     0.000000000     0.000000000
 C       -0.581482699     1.752210739     0.000000000
 C       -0.285970214     2.577946684     1.091705765
 C       -0.714414203     3.903965691     1.113948935
 C       -1.443291078     4.437529066     0.046553646
 C       -1.735989856     3.610489358    -1.044970221
 C       -1.310965761     2.283643656    -1.069141370
 C       -1.911885439     5.819464678     0.027020946
 C       -1.700441418     6.712302633     1.008954724
 C       -2.168421013     8.094228801     0.990605048
 C       -1.875892413     8.918428611     2.085326083
 C       -2.301606886    10.244059005     2.112599311
 C       -3.024382795    10.778232194     1.039331127
 C       -3.315938472     9.958539465    -0.056088241
 C       -2.892929424     8.630248964    -0.077948534
Si       -3.592991493    12.533938789     1.066052358
 C       -5.169987034    12.597760458     0.139306792
 C       -5.429512121    13.315012770    -0.961377586
 C       -6.726999537    13.305608410    -1.640802183
 C       -6.909844298    14.088597651    -2.788779807
 C       -8.122818094    14.105989733    -3.459077283
 C       -9.211956106    13.341874007    -2.987568217
 C       -9.017626331    12.529461054    -1.857421522
 C       -7.781218931    12.486236119    -1.227159244
 N      -10.438838503    13.373480567    -3.684844703
 C      -10.846905854    14.694142932    -4.212010668
 C      -11.553092196    12.628058633    -3.073141012
 C      -10.766337528    15.862538456    -3.211536063
 C      -12.007832156    15.981248553    -2.305887491
 N      -11.720182215    16.356254665    -0.902034596
 C      -11.121797370    15.279014824    -0.169746980
 C      -11.998834537    14.289663687     0.305584927
 C      -11.502532692    13.212200007     1.023895763
 C      -10.127429235    13.081183484     1.268370234
 C       -9.266307998    14.081495358     0.807573414
 C       -9.756084302    15.187532586     0.119642187
 C      -11.009791267    17.642309563    -0.786159863
 C       -9.656294628    11.922342201     2.033445291
 C       -8.371395402    11.689481433     2.329429007
Si       -7.736617684    10.255358503     3.282428777
 C       -6.884333852    10.938967495     4.767699197
 C       -7.469568766    11.979305986     5.497293863
 C       -6.829990576    12.500283898     6.621128300
 C       -5.591553531    12.000052811     7.034649955
 C       -5.006202102    10.961617190     6.298880376
 C       -5.643675018    10.436596032     5.177432271
 C       -4.886249581    12.514644787     8.203980805
 C       -5.335565102    13.504848117     8.993575893
 C       -4.630619564    14.019743365    10.162970066
 C       -3.393813702    13.518377392    10.579165666
 C       -2.755052378    14.040203588    11.703121617
 C       -3.344092289    15.072648541    12.442206281
 C       -4.582972296    15.575643919    12.027829212
 C       -5.215912689    15.056777473    10.900605109
Si       -2.485679907    15.753298102    13.928472861
 C       -1.719986829    14.353645150    14.903041314
 C       -1.154260550    16.930031254    13.350142225
 C       -3.696979974    16.663889329    15.023002180
 C       -9.122543871     9.140861608     3.851815775
 C       -6.567069503     9.282411412     2.202807534
 C       -3.932019494    13.082319611     2.818768220
 C       -2.279998411    13.612298428     0.295820590
 C       -0.620096504    -0.907549922    -1.511538979
 C       -0.642956795    -0.850917289     1.534765879
 H        0.281602335     2.218307646     1.954740903
 H       -0.473574821     4.525224022     1.974826100
 H       -2.302277785     4.005267480    -1.886704383
 H       -1.570239458     1.686410762    -1.947481050
 H       -2.469598468     6.100564308    -0.871390476
 H       -1.141556518     6.430615200     1.906263782
 H       -1.311840336     8.519901539     2.926244507
 H       -2.050832202    10.838185564     2.996106224
 H       -3.881527052    10.323869977    -0.920150668
 H       -3.132953225     8.010915270    -0.940258917
 H       -5.944697583    11.945794411     0.578722798
 H       -4.690699298    13.971957775    -1.435060129
 H       -6.087797132    14.699247403    -3.162260108
 H       -8.228582085    14.704501832    -4.359191345
 H       -9.825034882    11.920790120    -1.459392176
 H       -7.653536852    11.814034331    -0.374546143
 H      -12.448052494    12.703080094    -3.711807456
 H      -11.813731348    12.973273484    -2.057225126
 H      -11.284743532    11.556690482    -3.024365974
 H      -11.653973043    18.434120815    -1.206041475
 H      -10.035257371    17.681511545    -1.295574665
 H      -10.856672509    17.874422743     0.282606951
 H      -13.066316482    14.388585953     0.117999419
 H      -12.193236168    12.458234654     1.400123910
 H       -8.192071064    14.012230746     0.996220115
 H       -9.065516699    15.956775455    -0.215939691
 H      -10.467407538    11.248400161     2.337652960
 H       -7.580870365    12.394741004     2.018705243
 H       -8.432581442    12.416949030     5.214851711
 H       -7.305219265    13.307695150     7.175362629
 H       -4.042395431    10.558715173     6.604034565
 H       -5.137488406     9.628822756     4.639702287
 H       -3.929476230    12.026931048     8.412146141
 H       -6.293197826    13.991876054     8.785802398
 H       -2.917261109    12.711959734    10.024661943
 H       -1.788739832    13.607965962    11.977752068
 H       -5.091242114    16.380452588    12.566042928
 H       -6.178297479    15.462637210    10.593764853
 H      -10.186136459    14.908985408    -5.086207803
 H      -11.873735749    14.612013895    -4.629459520
 H       -9.856166386    15.748636139    -2.585410024
 H      -10.616715005    16.807138421    -3.765218236
 H      -12.706669931    16.746752916    -2.710588412
 H      -12.575113184    15.024601722    -2.290419312
 H        2.271901172    -1.027946782     0.012209942
 H        2.274165077     0.528451471     0.881149412
 H        2.268393040     0.504283377    -0.898764992
 H       -1.249340584    14.722812388    15.831473021
 H       -0.940992843    13.828945445    14.322886441
 H       -2.480518282    13.605032035    15.190685892
 H       -0.418780936    16.419653811    12.702899494
 H       -1.582626120    17.764563961    12.766084390
 H       -0.604162263    17.366399856    14.202282340
 H       -4.537258425    16.011259365    15.321310647
 H       -3.208940023    17.018865823    15.948343202
 H       -4.122534410    17.547509365    14.515781054
 H       -9.845083612     9.683385515     4.487212532
 H       -9.677820885     8.715968598     2.997157625
 H       -8.735170700     8.294989303     4.448287611
 H       -5.622447166     9.823227540     2.010684342
 H       -6.294850524     8.318205053     2.668969133
 H       -7.019123663     9.055257035     1.219805827
 H       -4.575175559    12.360789335     3.358459878
 H       -3.000717825    13.189364545     3.401354869
 H       -4.450429075    14.058315348     2.842318592
 H       -2.071778197    13.313187462    -0.747320394
 H       -2.584426290    14.673969099     0.286338320
 H       -1.327450083    13.544962171     0.851418468
 H       -0.245047153    -0.448583750    -2.443561522
 H       -0.288215047    -1.961363297    -1.506771305
 H       -1.723804593    -0.909787873    -1.557670988
 H       -0.285358690    -0.355614792     2.454676312
 H       -1.747816471    -0.841468703     1.563275172
 H       -0.317905601    -1.905431282     1.575910766

