139   

Si        0.000000000     0.000000000     0.000000000
 C        1.868958699     0.000000000     0.000000000
 C       -0.614518877     1.739293448     0.000000000
 C       -1.633202993     2.148945107    -0.864965188
 C       -2.085450402     3.468167886    -0.851253484
 C       -1.517317835     4.409951520     0.010482783
 C       -0.496654329     3.997425848     0.877129906
 C       -0.057120914     2.676584704     0.880141298
 C       -1.960486004     5.799523529     0.056667016
 C       -2.941004741     6.306036808    -0.709591880
 C       -3.394883625     7.691115018    -0.675168782
 C       -4.431897370     8.074941996    -1.536937985
 C       -4.901959680     9.383879896    -1.543738776
 C       -4.345157505    10.345064968    -0.686577066
 C       -3.310064056     9.965431804     0.170379191
 C       -2.838568859     8.651579306     0.172867050
Si       -5.016486708    12.060043888    -0.748489743
 C       -6.790031191    12.066107349    -0.286895863
 C       -7.513680630    10.990875439     0.050349531
 C       -8.933591046    11.044914826     0.413108622
 C       -9.593553097     9.853648011     0.749780490
 C      -10.936747114     9.858783462     1.099293578
 C      -11.655484551    11.064216171     1.096786673
 C      -11.008397243    12.255859517     0.750106530
 C       -9.659844589    12.239068049     0.410772471
 N      -13.040300640    10.988778642     1.469852750
 C      -13.223779480    11.006902738     2.936830734
 C      -13.900462133    11.964539848     0.774786747
 C      -12.705248833    12.282547282     3.623088394
 C      -12.732061409    12.144206745     5.155265590
 N      -11.608197072    12.823010604     5.822814176
 C      -10.314613522    12.308473847     5.607065889
 C      -10.118973106    11.010069279     5.093377865
 C       -8.838954062    10.520712909     4.887689575
 C       -7.709854565    11.278713360     5.227668013
 C       -7.904164485    12.554805164     5.763013981
 C       -9.180023696    13.067063774     5.956758758
 C      -11.736378740    14.291102225     5.805325596
 C       -6.384861615    10.708081052     4.986666230
 C       -5.228100851    11.324106230     5.264608395
Si       -3.570321850    10.605812077     4.961173630
 C       -3.744443997     8.924423670     4.223043009
 C       -3.114537086     7.808952870     4.785043753
 C       -3.261823355     6.549445053     4.208340996
 C       -4.060277388     6.371799804     3.071917161
 C       -4.690536119     7.487460837     2.513172619
 C       -4.528086007     8.752029130     3.075278225
 C       -4.183286644     5.033933036     2.504704080
 C       -4.899743456     4.735226340     1.408041115
 C       -5.022085585     3.396803371     0.841603458
 C       -4.391652766     2.282426885     1.400971423
 C       -4.535134959     1.019455127     0.826993025
 C       -5.300730781     0.848389484    -0.329819392
 C       -5.927518959     1.965796323    -0.898071252
 C       -5.788688266     3.223743298    -0.318673564
Si       -5.510779153    -0.807740091    -1.114146875
 C       -7.332144565    -1.212766916    -1.206748889
 C       -4.773705735    -0.737881835    -2.831974349
 C       -4.629139992    -2.124297382    -0.121776958
 C       -2.624926584    11.692571451     3.771081055
 C       -2.660287105    10.527144480     6.592044704
 C       -4.122955999    13.179117037     0.451300164
 C       -4.832539152    12.719820043    -2.486137131
 C       -0.606212640    -0.909892313    -1.516693179
 C       -0.653985624    -0.847481946     1.533398747
 H       -2.114222402     1.461378813    -1.566309504
 H       -2.894469438     3.755920737    -1.521314285
 H       -0.046496221     4.714531916     1.561007170
 H        0.734558238     2.410072309     1.585026055
 H       -1.435839110     6.427708882     0.782571557
 H       -3.466921093     5.669987090    -1.428150967
 H       -4.873651567     7.342526112    -2.209592457
 H       -5.712617022     9.624388797    -2.238318672
 H       -2.838389964    10.670531001     0.860432658
 H       -2.034470111     8.378125360     0.854825677
 H       -7.240840565    13.071768159    -0.304885736
 H       -7.092453333     9.976433075     0.087320589
 H       -9.044218457     8.911791026     0.748709280
 H      -11.445904889     8.934188223     1.366431664
 H      -11.551445137    13.196558302     0.747898111
 H       -9.168909950    13.176763486     0.149661014
 H      -14.953739340    11.681509199     0.944300205
 H      -13.715371446    11.901164567    -0.311598898
 H      -13.765876313    13.009151477     1.091310113
 H      -12.797135991    14.585271201     5.853716612
 H      -11.288892565    14.754816406     4.910980677
 H      -11.247912926    14.706308672     6.705666590
 H      -10.966133845    10.384432297     4.829734371
 H       -8.712896616     9.525033484     4.458553360
 H       -7.042825697    13.164996145     6.036895838
 H       -9.289628390    14.059631536     6.381027803
 H       -6.429924626     9.697850170     4.551032594
 H       -5.208398375    12.330465258     5.707836720
 H       -2.492247373     7.884212686     5.680130836
 H       -2.755369916     5.694704686     4.651950048
 H       -5.306032781     7.378481917     1.620726421
 H       -5.029369518     9.590975921     2.578284372
 H       -3.633935985     4.254643272     3.040992690
 H       -5.441281647     5.516145953     0.865636210
 H       -3.776519971     2.392439543     2.292842900
 H       -4.020623696     0.185906337     1.312734915
 H       -6.537354030     1.891205780    -1.802128927
 H       -6.284117291     4.080331834    -0.771175207
 H      -14.305367343    10.862143126     3.148178276
 H      -12.698193336    10.110340953     3.341257823
 H      -11.665710194    12.482276463     3.283952571
 H      -13.290981497    13.161062611     3.305540537
 H      -13.680341419    12.556501541     5.567228179
 H      -12.722409569    11.073870876     5.466626698
 H        2.271618594    -1.027807947    -0.018071556
 H        2.278666537     0.501234077     0.894216332
 H        2.266710592     0.528584323    -0.885496210
 H       -7.503611869    -2.193449853    -1.683920502
 H       -7.887941606    -0.457120349    -1.789234194
 H       -7.785228603    -1.249206133    -0.199274399
 H       -5.281369564     0.016750933    -3.458148341
 H       -3.701711002    -0.471134758    -2.798623711
 H       -4.860114458    -1.710636227    -3.346270203
 H       -5.028383119    -2.190292489     0.905957316
 H       -4.748010016    -3.119275000    -0.585963577
 H       -3.545273284    -1.921820640    -0.049096413
 H       -3.148682874    11.774523286     2.801258563
 H       -2.498936052    12.713569839     4.170763270
 H       -1.618232403    11.283545276     3.573062889
 H       -3.191564302     9.881704672     7.315270029
 H       -1.639114310    10.127014201     6.469743759
 H       -2.571324487    11.527994350     7.050362922
 H       -4.340139359    12.897088885     1.499465696
 H       -3.029351679    13.142111816     0.305495874
 H       -4.437442533    14.230578007     0.326464850
 H       -5.381242600    12.098456721    -3.216339572
 H       -5.217713681    13.750756069    -2.572487557
 H       -3.771910112    12.732532451    -2.796373215
 H       -0.296205796    -0.395036700    -2.443695944
 H       -0.199690958    -1.935798268    -1.555869064
 H       -1.707407615    -0.991117619    -1.530555377
 H       -0.328906794    -0.325255979     2.450628766
 H       -1.758938529    -0.866055197     1.538874823
 H       -0.300856128    -1.890934486     1.598995691

