139   

Si        0.000000000     0.000000000     0.000000000
 C        1.869367314     0.000000000     0.000000000
 C       -0.647571788     1.728962961     0.000000000
 C        0.166283667     2.809226295    -0.354720854
 C       -0.337947800     4.109774717    -0.349736977
 C       -1.665983776     4.359755580     0.005682872
 C       -2.481458256     3.275513391     0.356982017
 C       -1.981060921     1.976285575     0.352600993
 C       -2.236760127     5.702696152     0.025256581
 C       -1.565360292     6.823632612    -0.288884677
 C       -2.135547750     8.166704736    -0.269494702
 C       -3.463273706     8.417010491     0.085800864
 C       -3.967316143     9.718022700     0.090680322
 C       -3.153613803    10.796471191    -0.266749845
 C       -1.821082908    10.548467783    -0.625780090
 C       -1.320113281     9.249991578    -0.625338234
Si       -3.783545621    12.530856596    -0.272575630
 C       -2.824100503    13.549853984     0.908959679
 C       -1.814136685    13.097637609     1.664224596
 C       -1.053239208    13.919781363     2.605743417
 C       -0.016294691    13.323362254     3.338860327
 C        0.735095613    14.055082187     4.242939112
 C        0.438244079    15.414545055     4.484482124
 C       -0.602902024    16.013257021     3.750493189
 C       -1.315614819    15.276163242     2.813084733
 N        1.213417959    16.140068363     5.406515425
 C        1.677113010    15.413446896     6.602036233
 C        0.789122457    17.518112017     5.701565086
 C        0.535850888    14.781609373     7.425541754
 C        0.913485510    14.635967274     8.911046951
 N        0.380352610    15.704931870     9.786640321
 C        0.763522482    17.014745970     9.390397763
 C        2.139517214    17.320423552     9.400918378
 C        2.575181912    18.580066957     9.025230639
 C        1.660409575    19.583267405     8.667191337
 C        0.297163191    19.282440695     8.683303834
 C       -0.154174709    18.017199700     9.045424198
 C       -1.050458285    15.520712200    10.087386152
 C        2.176935365    20.897163023     8.278218530
 C        1.408759527    21.933076108     7.916730970
Si        2.045921602    23.581052410     7.428356187
 C        3.888410126    23.586436556     7.512579396
 C        4.587861343    24.439987873     8.371908843
 C        5.980817273    24.417206062     8.409492448
 C        6.706202165    23.538971557     7.594812096
 C        6.003910315    22.685303752     6.738287816
 C        4.611419188    22.707538907     6.695808492
 C        8.163586272    23.551881485     7.669517258
 C        8.972592506    22.763947003     6.941144640
 C       10.430010780    22.775183033     7.014230538
 C       11.135843679    23.626184166     7.868324005
 C       12.530252940    23.603043078     7.905435472
 C       13.249137649    22.725356257     7.088979741
 C       12.543686053    21.870108496     6.231334382
 C       11.152364026    21.896389532     6.195314959
Si       15.094313470    22.669554297     7.113785425
 C       15.778382164    23.857784826     8.384075707
 C       15.637814392    20.932981586     7.540676560
 C       15.728221623    23.141041219     5.420154270
 C        1.515343941    23.941059347     5.673792709
 C        1.317768633    24.857338501     8.581268184
 C       -3.587070127    13.239148313    -1.990635756
 C       -5.583441577    12.589000422     0.226955917
 C       -0.628285791    -0.864163335    -1.532802217
 C       -0.605619847    -0.890487041     1.528230699
 H        1.213258749     2.677282888    -0.641364523
 H        0.317417438     4.933309537    -0.627932239
 H       -3.519290170     3.447999626     0.636407465
 H       -2.665091738     1.171166603     0.635059043
 H       -3.288516344     5.748142137     0.323084685
 H       -0.513902050     6.777479243    -0.587614564
 H       -4.118594209     7.593966891     0.364627895
 H       -5.012563543     9.851494659     0.382503902
 H       -1.138649506    11.353991275    -0.915802369
 H       -0.283023984     9.076096642    -0.906302726
 H       -3.147353914    14.600797848     0.957948379
 H       -1.476872005    12.050781478     1.637132725
 H        0.212055934    12.267465374     3.186939041
 H        1.555941320    13.574632636     4.767389099
 H       -0.860419599    17.056588014     3.901731776
 H       -2.106643023    15.768414385     2.245911556
 H        1.498583329    17.987177026     6.409326251
 H       -0.217447867    17.585942441     6.144806399
 H        0.821123212    18.117381150     4.774487258
 H       -1.180748431    14.545992976    10.590393400
 H       -1.708251168    15.546471447     9.204727910
 H       -1.379832014    16.295282061    10.801975394
 H        2.855168303    16.563925955     9.716494976
 H        3.643942480    18.799623048     9.025166856
 H       -0.432862755    20.046525470     8.413490473
 H       -1.221200994    17.815254824     9.040215484
 H        3.274835093    20.957247675     8.316072962
 H        0.311178198    21.851729396     7.893090623
 H        4.075542363    25.143589228     9.033704765
 H        6.508011060    25.091049330     9.082501673
 H        6.543896623    21.993672283     6.093899344
 H        4.117753575    22.018359933     6.002991874
 H        8.579188728    24.270245091     8.382314016
 H        8.556648171    22.046097965     6.227828034
 H       10.599895404    24.318714049     8.515085357
 H       13.026478304    24.293092170     8.593475334
 H       13.052484006    21.162825033     5.570166877
 H       10.621715755    21.225183887     5.522480060
 H        2.399407388    14.630902611     6.277127475
 H        2.266817769    16.122107927     7.228978147
 H       -0.382143364    15.392274268     7.323829312
 H        0.268002014    13.797723778     6.997674776
 H        0.549017679    13.660732000     9.304914508
 H        2.019027888    14.613931018     9.038348064
 H        2.267559563    -1.028309406     0.066595851
 H        2.270985460     0.566615991     0.859387011
 H        2.278086707     0.451921131    -0.920901753
 H       16.882246989    23.819808722     8.410706791
 H       15.415752692    23.617725575     9.399494739
 H       15.490076877    24.900452367     8.160989743
 H       15.250554854    20.624737925     8.528896827
 H       15.272909075    20.199252721     6.800528031
 H       16.738654302    20.853219550     7.574691496
 H       15.420153559    24.167300947     5.149189440
 H       16.830976520    23.102444209     5.378165712
 H       15.340225181    22.463694295     4.638946905
 H        1.889809051    23.174139603     4.971935497
 H        0.415485816    23.968361329     5.580721787
 H        1.903763510    24.918319185     5.333633230
 H        1.585023556    24.648832696     9.633476874
 H        1.676024651    25.873170678     8.336674177
 H        0.214829055    24.871879929     8.519737204
 H       -2.526606889    13.258717191    -2.300397856
 H       -4.138769945    12.637634245    -2.735213832
 H       -3.968459101    14.273759748    -2.047017940
 H       -5.730333054    12.190008233     1.247095264
 H       -5.967603922    13.624635958     0.221162516
 H       -6.213118215    11.998321727    -0.461397102
 H       -0.283906319    -0.353519512    -2.450419805
 H       -0.275910248    -1.909445629    -1.579974724
 H       -1.732528677    -0.881580059    -1.561515678
 H       -0.289327594    -0.364635894     2.447506921
 H       -1.707034149    -0.962609920     1.550285730
 H       -0.205014335    -1.918394562     1.578110746

