139   

Si        0.000000000     0.000000000     0.000000000
 C        1.869444842     0.000000000     0.000000000
 C       -0.624438773     1.737992127     0.000000000
 C        0.073116890     2.742472329    -0.680090325
 C       -0.395558993     4.055657377    -0.682104687
 C       -1.576322871     4.393790481    -0.014839026
 C       -2.276652064     3.385880438     0.660587759
 C       -1.808058743     2.074232765     0.668265566
 C       -2.104815145     5.753798465     0.010228323
 C       -1.530004125     6.809380143    -0.590804639
 C       -2.059391986     8.168986986    -0.565082327
 C       -3.240167536     8.505497756     0.102557914
 C       -3.710277996     9.818473357     0.101494654
 C       -3.014435777    10.822388694    -0.579717947
 C       -1.831282637    10.488100439    -1.250970546
 C       -1.358586000     9.178397449    -1.238534042
Si       -3.628242029    12.562631686    -0.587115094
 C       -2.762938119    13.502418932     0.727590748
 C       -1.839687894    12.974137857     1.541828280
 C       -1.142556891    13.715396632     2.594915332
 C       -0.195233552    13.036295068     3.377703802
 C        0.493225224    13.688116061     4.386855725
 C        0.221157709    15.042507207     4.669689658
 C       -0.723220697    15.725144267     3.889055806
 C       -1.377717932    15.067601086     2.852192298
 N        0.961957896    15.648327025     5.715157484
 C        0.782648467    15.039241318     7.048388701
 C        0.974529383    17.118591731     5.732218705
 C       -0.390513811    15.570427151     7.890953435
 C       -1.785193165    15.251677274     7.320876486
 N       -2.244652385    13.866722194     7.504540404
 C       -2.201911974    13.317034386     8.789229704
 C       -2.429149806    14.142192009     9.914200724
 C       -2.389704132    13.610500027    11.192322489
 C       -2.171172273    12.241663180    11.404845005
 C       -1.976675045    11.422158968    10.289016791
 C       -1.997246263    11.938507894     9.000978250
 C       -1.984041267    12.974676670     6.368400592
 C       -2.138903994    11.731896492    12.776314785
 C       -1.938170498    10.446236726    13.094837031
Si       -1.889749593     9.763827218    14.793319082
 C       -3.227982549     8.501286990    14.939993497
 C       -4.369103010     8.591381411    14.135566265
 C       -5.384940956     7.642095098    14.239659840
 C       -5.286688619     6.588075319    15.152522241
 C       -4.144353717     6.502860682    15.959533999
 C       -3.126257816     7.447762752    15.856148719
 C       -6.324565805     5.572199681    15.295920728
 C       -7.464793027     5.538644002    14.585502895
 C       -8.503117557     4.523277813    14.728203629
 C       -8.405457437     3.467044510    15.638251554
 C       -9.422294180     2.518442651    15.741315092
 C      -10.566265904     2.610706874    14.941461279
 C      -10.667076144     3.668823039    14.029357965
 C       -9.646222943     4.610136643    13.922621648
Si      -11.914800534     1.356677384    15.074976135
 C      -11.962846966     0.645912970    16.803427728
 C      -13.565227169     2.151840471    14.702015190
 C      -11.574789168    -0.004871545    13.841214579
 C       -0.217184157     8.972084675    15.053266422
 C       -2.176440075    11.084834465    16.081346627
 C       -3.277039064    13.359583226    -2.239543718
 C       -5.465537505    12.612087725    -0.253108386
 C       -0.634844281    -0.851119032    -1.537287726
 C       -0.606754056    -0.905185513     1.518639370
 H        1.000695790     2.539261671    -1.222585256
 H        0.168865754     4.819346577    -1.214339144
 H       -3.198582486     3.627119983     1.186842130
 H       -2.396532867     1.331734023     1.214442343
 H       -3.037356151     5.871393047     0.570566799
 H       -0.598400104     6.691641623    -1.152094345
 H       -3.804637041     7.740598841     0.632907304
 H       -4.637147942    10.020868634     0.645947020
 H       -1.244876536    11.231543868    -1.799076882
 H       -0.435616954     8.937923837    -1.763048752
 H       -3.061360062    14.558479095     0.804503040
 H       -1.529024114    11.920245515     1.479683433
 H        0.014545759    11.984149463     3.178188576
 H        1.258176388    13.163895346     4.956815338
 H       -0.947644046    16.770254955     4.079298753
 H       -2.096687573    15.619939637     2.246157403
 H        1.715392708    17.460273123     6.476293631
 H        0.003595229    17.581259318     5.968123405
 H        1.310845190    17.487570542     4.746353511
 H       -2.097341237    13.525474755     5.415934219
 H       -2.739040788    12.166813600     6.358171925
 H       -0.977164254    12.525821559     6.381247450
 H       -2.639459891    15.198847664     9.781055812
 H       -2.548483068    14.269405499    12.046654569
 H       -1.806240936    10.352556976    10.425629520
 H       -1.838516433    11.266306571     8.163956138
 H       -2.298633431    12.512503077    13.531830989
 H       -1.780478817     9.685864834    12.312674061
 H       -4.500635611     9.394980379    13.402553974
 H       -6.261248995     7.730926252    13.599816452
 H       -4.048188701     5.689488205    16.676070806
 H       -2.257814337     7.329008799    16.509422452
 H       -6.113419270     4.805400399    16.047100501
 H       -7.675772674     6.305571937    13.834092296
 H       -7.528328306     3.375669022    16.276556309
 H       -9.286886439     1.714058165    16.469637102
 H      -11.537265654     3.792644478    13.378896597
 H       -9.742135876     5.423689163    13.205700180
 H        0.689500617    13.935713808     6.937461795
 H        1.736166053    15.213921862     7.603454859
 H       -0.301566371    15.147459739     8.914412072
 H       -0.297335109    16.664493633     8.022976146
 H       -2.541314488    15.918002080     7.802541836
 H       -1.818589456    15.499067545     6.234754723
 H        2.269114471    -1.028181664     0.056357918
 H        2.268822915     0.559318084     0.865580596
 H        2.279559714     0.463748432    -0.914087147
 H      -12.804250917    -0.059912896    16.921279393
 H      -12.089094820     1.441876806    17.559657429
 H      -11.036229493     0.097519046    17.047322636
 H      -13.751969009     3.015286883    15.366103165
 H      -13.619788209     2.514262117    13.660646852
 H      -14.394627079     1.436882156    14.846395547
 H      -10.605125815    -0.495519561    14.040875113
 H      -12.356659787    -0.783637560    13.875151600
 H      -11.537764298     0.387475070    12.809036250
 H       -0.060778616     8.125862665    14.360117190
 H        0.597210302     9.698319758    14.877650638
 H       -0.103294290     8.587508445    16.081466223
 H       -3.160011384    11.570915800    15.946545042
 H       -2.157740520    10.660848616    17.101340906
 H       -1.402285456    11.870888786    16.032262496
 H       -2.191985829    13.443306872    -2.429998785
 H       -3.716351202    12.771733835    -3.065915276
 H       -3.700281414    14.378298248    -2.293921228
 H       -5.705552884    12.244594328     0.760876118
 H       -5.860969006    13.640555043    -0.331263616
 H       -6.019819177    11.987250982    -0.976573043
 H       -0.287785462    -0.339991242    -2.453290388
 H       -0.290963657    -1.899151829    -1.588668365
 H       -1.739444150    -0.860029949    -1.564802224
 H       -0.316267006    -0.375062336     2.443841369
 H       -1.706138522    -1.007306328     1.523093777
 H       -0.181413219    -1.923281602     1.572841902

