139   

Si        0.000000000     0.000000000     0.000000000
 C        1.869470810     0.000000000     0.000000000
 C       -0.632343946     1.734766122     0.000000000
 C        0.080805930     2.751579732    -0.644450069
 C       -0.395470996     4.062090211    -0.645294754
 C       -1.597907858     4.385790390    -0.010282786
 C       -2.313332600     3.365496665     0.629873734
 C       -1.838579472     2.056100808     0.634722838
 C       -2.135012701     5.742488590     0.014632309
 C       -1.547891562     6.807819459    -0.556568477
 C       -2.084733671     8.164684962    -0.531842943
 C       -3.287374038     8.487652751     0.103444524
 C       -3.763945006     9.798011398     0.102804430
 C       -3.040958812    10.815795213    -0.527603573
 C       -1.835557742    10.496527815    -1.164478690
 C       -1.366361144     9.185287646    -1.168544974
Si       -3.664096081    12.550456926    -0.532917117
 C       -2.241844601    13.684183949    -0.746941047
 C       -2.087285430    14.550214411    -1.756854973
 C       -0.936196814    15.444160493    -1.898690618
 C       -0.884048204    16.310424010    -3.001934576
 C        0.182412843    17.174694083    -3.181221202
 C        1.225781599    17.220858626    -2.232117198
 C        1.180543528    16.350861307    -1.130926575
 C        0.120865657    15.461877018    -0.986607629
 N        2.293628292    18.118172345    -2.456539813
 C        1.905700095    19.510360138    -2.769191174
 C        3.441851483    18.022330927    -1.540909957
 C        0.726779777    20.077148448    -1.959973869
 C        0.984143234    20.053714922    -0.443323917
 N       -0.153986709    20.551628368     0.352733937
 C       -1.363366375    19.830522397     0.212614496
 C       -1.327014669    18.421794092     0.257824863
 C       -2.491310501    17.683807792     0.124183183
 C       -3.736958157    18.314881516    -0.009411220
 C       -3.773216672    19.710927655    -0.023739560
 C       -2.610818986    20.465202550     0.090748184
 C       -0.256993401    22.020498388     0.331701570
 C       -4.940505560    17.491532671    -0.147957894
 C       -6.174674818    17.994990743    -0.281125904
Si       -7.726415328    17.040887491    -0.459045102
 C       -8.834938096    17.480081653     0.949514900
 C       -8.304484707    18.009910159     2.130399611
 C       -9.141286304    18.342058477     3.195221000
 C      -10.522012129    18.144129302     3.107217034
 C      -11.049712999    17.608387507     1.924715351
 C      -10.217524033    17.279149409     0.857758654
 C      -11.436146755    18.476552099     4.195205940
 C      -11.061751658    18.994579248     5.377371633
 C      -11.976332553    19.326793708     6.464969478
 C      -13.357455500    19.132185988     6.374809567
 C      -14.195161386    19.463839795     7.439077546
 C      -13.667943569    19.990545904     8.623222606
 C      -12.284247001    20.185788577     8.716351277
 C      -11.450824696    19.860940218     7.648844054
Si      -14.776740427    20.429825692    10.032653597
 C      -16.276640899    19.313760917    10.039443651
 C      -13.865372508    20.227375153    11.652483902
 C      -15.312886910    22.207850916     9.825805484
 C       -8.517742565    17.522453005    -2.082017398
 C       -7.432068593    15.199234546    -0.420241736
 C       -4.885955685    12.728729547    -1.934301225
 C       -4.483116648    12.971017646     1.092442847
 C       -0.632120381    -0.854290852    -1.536908103
 C       -0.605085518    -0.904658922     1.520057296
 H        1.026416949     2.560643482    -1.159513878
 H        0.181009735     4.835567052    -1.149876722
 H       -3.252247169     3.595211833     1.130569658
 H       -2.439774313     1.303400436     1.152070401
 H       -3.084493212     5.848700505     0.547639996
 H       -0.598660023     6.701604692    -1.090205953
 H       -3.864833584     7.713242504     0.605100082
 H       -4.711259094     9.989652165     0.614357979
 H       -1.229614926    11.253997925    -1.672882679
 H       -0.428720286     8.954634688    -1.671294843
 H       -1.487474147    13.598413903     0.052073166
 H       -2.821789784    14.659411439    -2.565969476
 H       -1.693901438    16.303538557    -3.732485210
 H        0.220379103    17.818177663    -4.056360334
 H        1.966235726    16.356740460    -0.382245296
 H        0.115453415    14.783358911    -0.131807133
 H        4.270161430    18.636169803    -1.935694708
 H        3.805428532    16.978637150    -1.521016449
 H        3.230131955    18.344068709    -0.509422580
 H        0.732435960    22.459926211     0.543655125
 H       -0.931258613    22.347601647     1.144148976
 H       -0.622679756    22.429873729    -0.623137083
 H       -0.377877333    17.903309031     0.381283969
 H       -2.433475999    16.592074912     0.128390226
 H       -4.727423932    20.229819454    -0.126978304
 H       -2.685513946    21.547257993     0.065650773
 H       -4.734323454    16.413130069    -0.133082043
 H       -6.341048328    19.085468964    -0.293950255
 H       -7.230422190    18.184501519     2.257209528
 H       -8.705636870    18.757946049     4.102196018
 H      -12.122279539    17.446799623     1.836006090
 H      -10.685541239    16.866989347    -0.040070312
 H      -12.490011170    18.271266645     3.985601134
 H      -10.007677237    19.199640893     5.587100112
 H      -13.792432738    18.718730791     5.466607837
 H      -15.266841419    19.290577314     7.307602979
 H      -11.815512946    20.593236901     9.616365436
 H      -10.378099177    20.022369194     7.739863571
 H        2.794270083    20.168672157    -2.655387787
 H        1.645449718    19.532541311    -3.855653604
 H        0.516051942    21.109044161    -2.295467580
 H       -0.197559414    19.501604027    -2.181023052
 H        1.203853043    19.012798806    -0.107875474
 H        1.882693100    20.656568310    -0.189026107
 H        2.268163448    -1.028411983     0.059065449
 H        2.269411298     0.561363175     0.863914670
 H        2.279549289     0.460765046    -0.915626159
 H      -16.923608443    19.519776088    10.910652436
 H      -15.982676075    18.249565732    10.088541597
 H      -16.892000119    19.448372071     9.132818709
 H      -13.464524397    19.203111828    11.760051619
 H      -13.016634346    20.928437122    11.735986176
 H      -14.533349401    20.414136304    12.512100768
 H      -15.852128520    22.356815452     8.873019050
 H      -15.984580860    22.523771680    10.643138038
 H      -14.445133350    22.891808704     9.822385428
 H       -8.785825779    18.594346758    -2.096111850
 H       -7.831566265    17.342301184    -2.929117253
 H       -9.439949753    16.946885292    -2.272338982
 H       -6.905975907    14.892740048     0.502793150
 H       -8.384130645    14.640111611    -0.454568092
 H       -6.821634522    14.871310821    -1.280745472
 H       -4.441725333    12.405761660    -2.893683602
 H       -5.783571633    12.107498603    -1.765964208
 H       -5.218087064    13.775668925    -2.055130416
 H       -3.805296307    12.780207078     1.944339754
 H       -4.770229256    14.038694656     1.132989978
 H       -5.397335990    12.374216328     1.254795553
 H       -0.286012990    -0.342625432    -2.452962000
 H       -0.285091462    -1.901270008    -1.587157198
 H       -1.736620256    -0.866296672    -1.564868060
 H       -0.315906869    -0.371778619     2.444041257
 H       -1.704186866    -1.008764039     1.524557018
 H       -0.177587609    -1.921606700     1.576133758

