139   

Si        0.000000000     0.000000000     0.000000000
 C        1.869053586     0.000000000     0.000000000
 C       -0.633414109     1.734211364     0.000000000
 C        0.038359615     2.732369993    -0.714779311
 C       -0.435242173     4.043686606    -0.718470378
 C       -1.592924791     4.387440135    -0.014480380
 C       -2.266590457     3.386041358     0.696737628
 C       -1.794774121     2.075481827     0.703611377
 C       -2.125588186     5.745767068     0.010400563
 C       -1.576765944     6.794851399    -0.625334314
 C       -2.110090158     8.153087796    -0.599980076
 C       -3.268191006     8.494648901     0.104841457
 C       -3.743263608     9.805465121     0.102278291
 C       -3.063829662    10.805040331    -0.602010719
 C       -1.903746323    10.467125278    -1.309234801
 C       -1.435815277     9.155282149    -1.309731808
Si       -3.691660082    12.539342482    -0.605890156
 C       -2.314154135    13.656635558    -1.070011726
 C       -2.304308082    14.470472600    -2.133524264
 C       -1.189216411    15.354408308    -2.482242832
 C       -1.301030509    16.161263481    -3.625402476
 C       -0.275836126    17.014074028    -3.998812413
 C        0.886125573    17.115608667    -3.206302976
 C        1.002591445    16.309972002    -2.063955896
 C       -0.017507080    15.426964654    -1.725387588
 N        1.896567496    18.006529337    -3.645146357
 C        1.493116649    19.423782705    -3.738054092
 C        3.231986886    17.807333812    -3.062648489
 C        1.640254125    20.261019286    -2.455366387
 C        0.684215184    19.859032295    -1.316560295
 N       -0.715730724    20.279265719    -1.485130398
 C       -0.970688975    21.618539998    -1.799617697
 C       -0.151757642    22.633116762    -1.253925464
 C       -0.390852280    23.963315454    -1.555332266
 C       -1.470246026    24.343378140    -2.366165653
 C       -2.296165235    23.339956873    -2.880600584
 C       -2.063745916    21.999883369    -2.602966587
 C       -1.597589433    19.260997013    -2.068049147
 C       -1.677595610    25.763453602    -2.653604086
 C       -2.673699890    26.237165908    -3.413892214
Si       -2.974140460    28.001557287    -3.801713519
 C       -2.884890997    28.207100654    -5.634102743
 C       -2.140226220    27.307743863    -6.407211227
 C       -2.069228652    27.457751306    -7.789904535
 C       -2.733289872    28.511188790    -8.432094609
 C       -3.472467014    29.409050923    -7.656476146
 C       -3.548029016    29.260258023    -6.272055022
 C       -2.628297105    28.625573848    -9.883074132
 C       -3.215568811    29.583178015   -10.620634143
 C       -3.109348263    29.695864734   -12.071754803
 C       -2.369818820    28.797221244   -12.845784100
 C       -2.295342654    28.942526351   -14.230668852
 C       -2.968466287    29.986071799   -14.874985694
 C       -3.711565219    30.886844016   -14.101831600
 C       -3.777471551    30.744119675   -12.718023877
Si       -2.869828728    30.178436680   -16.708706145
 C       -2.668856614    28.505189748   -17.517858756
 C       -4.430753611    30.978964290   -17.354947102
 C       -1.395385942    31.254997177   -17.106786054
 C       -4.678375673    28.450155433    -3.181270498
 C       -1.696605498    29.113214141    -3.015889974
 C       -5.110199176    12.654670306    -1.813621608
 C       -4.268539522    13.019231735     1.104776524
 C       -0.632521402    -0.852613027    -1.537859929
 C       -0.605014276    -0.909058834     1.517557683
 H        0.948188399     2.525203663    -1.285109653
 H        0.108010865     4.802151100    -1.279563988
 H       -3.170309801     3.631593541     1.251620058
 H       -2.362767233     1.338417284     1.277951440
 H       -3.037999944     5.868424921     0.601619599
 H       -0.664853918     6.672754348    -1.217384691
 H       -3.811454317     7.734490122     0.663132721
 H       -4.654650503    10.011612368     0.670252101
 H       -1.334495508    11.209251037    -1.878745264
 H       -0.533983942     8.909567782    -1.867792646
 H       -1.457522853    13.611490416    -0.378042087
 H       -3.144345655    14.536645767    -2.837659399
 H       -2.199679438    16.104540353    -4.240629763
 H       -0.354774611    17.600069385    -4.912647995
 H        1.888311716    16.361720288    -1.437731183
 H        0.100383737    14.797149963    -0.842118867
 H        3.955234591    18.440584113    -3.606286293
 H        3.540315579    16.757461977    -3.217019580
 H        3.302342045    18.039928476    -1.988751305
 H       -1.315702293    18.256649991    -1.700709897
 H       -1.576851375    19.234924120    -3.169958554
 H       -2.635192288    19.442073840    -1.731331547
 H        0.668035408    22.373069039    -0.591234597
 H        0.265623975    24.728477703    -1.139451185
 H       -3.143572459    23.607620184    -3.514504175
 H       -2.727787197    21.253860913    -3.026909092
 H       -0.929954674    26.414548762    -2.181740510
 H       -3.411281455    25.557542746    -3.870870366
 H       -1.601025789    26.466090246    -5.959521928
 H       -1.489363639    26.746976496    -8.375830197
 H       -3.998209310    30.235485259    -8.130898725
 H       -4.143272606    29.991437780    -5.718463124
 H       -2.017065914    27.853117338   -10.359319732
 H       -3.827221065    30.355845758   -10.145457458
 H       -1.841692603    27.972758117   -12.370008681
 H       -1.699000789    28.209384635   -14.780989797
 H       -4.259103380    31.720774817   -14.549431271
 H       -4.358671659    31.455726819   -12.134286203
 H        2.123318830    19.876473031    -4.541628835
 H        0.443181662    19.483010572    -4.101799429
 H        2.681236751    20.211074749    -2.085520936
 H        1.478601541    21.328313045    -2.717788818
 H        0.712829328    18.755007748    -1.168150980
 H        1.048183000    20.300639522    -0.357214956
 H        2.268349544    -1.028286319     0.056659606
 H        2.268638266     0.559739980     0.865296934
 H        2.279178776     0.463835691    -0.914102681
 H       -2.664560967    28.592269196   -18.618976886
 H       -3.495828218    27.826023014   -17.241826113
 H       -1.723728691    28.017313725   -17.221971105
 H       -5.326996859    30.403066977   -17.060972655
 H       -4.553756968    32.006741249   -16.971074525
 H       -4.421906616    31.037749885   -18.457930140
 H       -0.456654827    30.803992527   -16.737606580
 H       -1.288575445    31.405318289   -18.195395787
 H       -1.486896001    32.251608816   -16.638606070
 H       -5.461465596    27.866832347    -3.698534436
 H       -4.773154844    28.244474236    -2.099295501
 H       -4.900708157    29.519972653    -3.336901656
 H       -0.677839934    28.865032514    -3.365322882
 H       -1.879678156    30.173628305    -3.266143788
 H       -1.706580380    29.023536193    -1.915048816
 H       -4.791651309    12.382444858    -2.836609347
 H       -5.931022966    11.969597227    -1.534051674
 H       -5.527658924    13.676487173    -1.850921264
 H       -3.467325315    12.882596671     1.853676775
 H       -4.575974853    14.080374567     1.138413265
 H       -5.132784617    12.412739432     1.427540910
 H       -0.288515699    -0.339217825    -2.453697679
 H       -0.284607926    -1.899169643    -1.590335539
 H       -1.737116627    -0.865697190    -1.564130693
 H       -0.316157006    -0.379828482     2.443643225
 H       -1.704024062    -1.014312004     1.521063861
 H       -0.176853734    -1.926039950     1.570044236

