139   

Si        0.000000000     0.000000000     0.000000000
 C        1.869356401     0.000000000     0.000000000
 C       -0.638809348     1.732322087     0.000000000
 C        0.108690316     2.772203740    -0.562903213
 C       -0.378152460     4.079030734    -0.560445192
 C       -1.624806900     4.375450673    -0.002487312
 C       -2.374556703     3.332101866     0.556444220
 C       -1.889789051     2.026631014     0.557106323
 C       -2.175463718     5.726590139     0.023261009
 C       -1.561906646     6.813688001    -0.474362026
 C       -2.116375677     8.163484044    -0.446500551
 C       -1.369535369     9.211065752    -1.002361022
 C       -1.857996969    10.515136094    -0.998610241
 C       -3.111587495    10.800557270    -0.443466137
 C       -3.859390187     9.757160761     0.111585814
 C       -3.364243823     8.453568642     0.111999584
Si       -3.762722099    12.526843183    -0.436313510
 C       -5.575963446    12.459023139    -0.182056704
 C       -6.240170176    13.019285864     0.837256072
 C       -7.692409681    12.945349941     1.009838155
 C       -8.276649887    13.572987262     2.119852043
 C       -9.645378790    13.532188914     2.328233958
 C      -10.492164396    12.896566109     1.394984982
 C       -9.907630780    12.267907306     0.281015061
 C       -8.528396256    12.277457529     0.111547668
 N      -11.882423791    12.869352885     1.631401987
 C      -12.472926092    14.104444621     2.182133960
 C      -12.722908692    12.261898101     0.585497896
 C      -12.302165687    15.316988882     1.253247012
 C      -12.898776663    16.579066145     1.896667326
 N      -12.875469195    17.749056837     0.998305565
 C      -13.608161892    17.632201077    -0.200155760
 C      -14.845781645    16.953300740    -0.195021610
 C      -15.582294395    16.826709194    -1.361264607
 C      -15.147024679    17.407076664    -2.561470429
 C      -13.936435293    18.104886713    -2.557779205
 C      -13.177088230    18.225917436    -1.400593086
 C      -11.538560961    18.360033397     0.903605318
 C      -15.963721134    17.242854957    -3.765551991
 C      -15.646452119    17.752232351    -4.963092754
Si      -16.637044139    17.571705427    -6.493300081
 C      -15.604492568    16.715581933    -7.760284106
 C      -14.468980771    15.988944487    -7.382439313
 C      -13.692451080    15.344257430    -8.342198204
 C      -14.034567405    15.403698698    -9.699410816
 C      -15.171634332    16.126520712   -10.072371240
 C      -15.949919555    16.775249193    -9.114622884
 C      -13.189813411    14.711920209   -10.667804861
 C      -13.405165243    14.692770664   -11.994132842
 C      -12.561237211    14.001449951   -12.963339199
 C      -11.424157269    13.278286073   -12.593058879
 C      -10.645852295    12.632459209   -13.553389072
 C      -10.982956335    12.704202673   -14.908860428
 C      -12.121767345    13.429326617   -15.282823117
 C      -12.901944788    14.065923158   -14.321032070
Si       -9.960950722    11.853791557   -16.190027810
 C       -8.230572512    11.556343309   -15.548311222
 C      -10.771086403    10.221017520   -16.600936106
 C       -9.862447779    12.918532757   -17.723761807
 C      -18.181319338    16.563216160    -6.203145402
 C      -17.093835133    19.282144350    -7.090540805
 C       -2.908221337    13.480231787     0.922549701
 C       -3.442894729    13.340111164    -2.087831349
 C       -0.631866527    -0.857774885    -1.535147642
 C       -0.603548079    -0.901238228     1.522830673
 H        1.090112613     2.602126341    -1.014186371
 H        0.224625290     4.870798102    -1.001715756
 H       -3.348189180     3.540948479     0.996296542
 H       -2.519484557     1.255107857     1.008764784
 H       -3.160945892     5.809159373     0.491748233
 H       -0.577007875     6.732997740    -0.943231041
 H       -0.395279370     9.006015047    -1.441937737
 H       -1.230749833    11.291362214    -1.445051635
 H       -4.844353907     9.924192583     0.560880732
 H       -3.963955606     7.658930652     0.552628794
 H       -6.109161494    11.900595210    -0.968776987
 H       -5.738422116    13.583760918     1.634239500
 H       -7.643833585    14.092011080     2.840439678
 H      -10.063599724    13.992043341     3.219304581
 H      -10.521447003    11.765511386    -0.460170933
 H       -8.100542080    11.766737985    -0.753027620
 H      -13.772385404    12.235075127     0.925669556
 H      -12.412196346    11.212965982     0.430885266
 H      -12.684458622    12.793551327    -0.379385487
 H      -11.093310850    18.436422661     1.910266605
 H      -11.635530406    19.391650220     0.519979084
 H      -10.842003158    17.800596124     0.257715228
 H      -15.227933654    16.521987801     0.725852554
 H      -16.524626444    16.278475058    -1.338234567
 H      -13.572321212    18.566486075    -3.477485218
 H      -12.240561999    18.773125528    -1.446000627
 H      -16.873675978    16.652948376    -3.593704216
 H      -14.726982270    18.344215791    -5.102913997
 H      -14.155852575    15.905928115    -6.336212424
 H      -12.810939601    14.787020994    -8.030158463
 H      -15.459071076    16.188655941   -11.120354031
 H      -16.826311870    17.326010168    -9.466898262
 H      -12.333715903    14.186474744   -10.234192931
 H      -14.261785865    15.218172410   -12.426678350
 H      -11.136495046    13.211930377   -11.545203006
 H       -9.770190476    12.079750144   -13.201807514
 H      -12.434139146    13.520182170   -16.326840830
 H      -13.784731512    14.622077484   -14.631150228
 H      -13.551909291    13.916046790     2.382672298
 H      -12.012078867    14.302425005     3.176172660
 H      -11.230896970    15.473750028     1.021567612
 H      -12.787635365    15.121366793     0.276967044
 H      -13.951447244    16.400170020     2.213154123
 H      -12.346098271    16.840254793     2.827210140
 H        2.268463733    -1.026339596     0.086597093
 H        2.269649332     0.584023101     0.848571790
 H        2.279233311     0.435526326    -0.928062062
 H       -7.579977403    11.135479976   -16.335644299
 H       -8.224035237    10.846762796   -14.702336409
 H       -7.764370634    12.496202405   -15.201187640
 H      -10.837450403     9.569773629   -15.710754513
 H      -11.799006661    10.365919449   -16.979033158
 H      -10.204341176     9.673401729   -17.374233380
 H       -9.449700184    13.916969299   -17.490954463
 H       -9.210275300    12.459316588   -18.487715220
 H      -10.854980517    13.068282300   -18.183208745
 H      -17.936740353    15.545861099    -5.847106059
 H      -18.836462480    17.035719346    -5.449899556
 H      -18.767978016    16.452269622    -7.132723412
 H      -16.194704227    19.879230286    -7.328023302
 H      -17.717161025    19.242641610    -8.000631402
 H      -17.663144592    19.833509254    -6.320159422
 H       -3.084345722    13.016952257     1.910659985
 H       -1.815079467    13.509705651     0.765106852
 H       -3.266610362    14.523655918     0.970875410
 H       -3.883363758    12.755649729    -2.915865992
 H       -3.885332936    14.352131509    -2.125070125
 H       -2.362459637    13.441458892    -2.289684422
 H       -0.289592095    -0.345302634    -2.452193725
 H       -0.280791511    -1.903376880    -1.585571462
 H       -1.736322264    -0.874023895    -1.560837581
 H       -0.307591735    -0.369583625     2.445383004
 H       -1.703117832    -0.999148847     1.532746405
 H       -0.181157697    -1.920418719     1.577003998

