139   

Si        0.000000000     0.000000000     0.000000000
 C        1.869236044     0.000000000     0.000000000
 C       -0.656219016     1.725240054     0.000000000
 C        0.186696874     2.830490548    -0.148162173
 C       -0.333151544     4.125137376    -0.144947333
 C       -1.705060417     4.343857115     0.003472878
 C       -2.548964877     3.234308400     0.149610613
 C       -2.033297925     1.941296363     0.147195459
 C       -2.293841917     5.679059830     0.012851492
 C       -1.599362362     6.822236849    -0.117149381
 C       -2.189292937     8.157072249    -0.107622365
 C       -1.346380611     9.267205609    -0.253271036
 C       -1.863554421    10.560141909    -0.250289358
 C       -3.240547820    10.772218212    -0.109560444
 C       -4.084333824     9.666362329     0.035406056
 C       -3.562165531     8.373325670     0.039669489
Si       -3.928482222    12.484718251    -0.105292623
 C       -5.717142911    12.383326175    -0.480866265
 C       -6.721265013    12.797534505     0.303444029
 C       -8.135570148    12.685073033    -0.061729923
 C       -9.113488566    13.147860844     0.827558035
 C      -10.464530250    13.060777844     0.521699121
 C      -10.882702714    12.541796801    -0.718325850
 C       -9.899538458    12.078078016    -1.615907741
 C       -8.555842969    12.135320078    -1.277920120
 N      -12.241331156    12.432439114    -1.076615664
 C      -13.252649786    12.965442565    -0.152701521
 C      -12.555379316    12.690975729    -2.493313323
 C      -13.336401465    14.501665861    -0.138612568
 C      -13.952979564    15.008602937     1.178309574
 N      -13.555229899    16.390538097     1.527813436
 C      -12.142475509    16.533588199     1.669396198
 C      -11.526775587    15.832061290     2.723161774
 C      -10.157623475    15.928296734     2.915440550
 C       -9.368301027    16.737811927     2.084436920
 C       -9.988859771    17.442989545     1.050852975
 C      -11.360994590    17.350500116     0.842311060
 C      -14.211582476    17.395679473     0.673340435
 C       -7.924829066    16.807391274     2.326973607
 C       -7.082572199    17.547524500     1.594715247
Si       -5.273801307    17.671420949     1.852778373
 C       -4.836592223    19.428304849     2.197580295
 C       -5.810970945    20.334479708     2.632561619
 C       -5.474197647    21.660991679     2.891471570
 C       -4.157804893    22.111719463     2.728534710
 C       -3.186986047    21.202738356     2.297307388
 C       -3.520875072    19.874902650     2.034554818
 C       -3.854660352    23.510830504     3.012482201
 C       -2.637916623    24.068918961     2.894196366
 C       -2.334513474    25.467894892     3.178055607
 C       -3.304371440    26.377269299     3.609177719
 C       -2.970135200    27.705914570     3.869028461
 C       -1.657581293    28.157685714     3.694582844
 C       -0.684254100    27.248406208     3.261739466
 C       -1.019124274    25.920153677     3.010396439
Si       -1.212631681    29.916469520     4.038008699
 C       -2.689421775    31.021912558     3.733857623
 C       -0.679510507    30.049530732     5.823848325
 C        0.184906400    30.452236131     2.917695665
 C       -4.719042908    16.622920413     3.295135423
 C       -4.448599837    17.092112250     0.280202479
 C       -3.607323964    13.227008364     1.576804472
 C       -3.111440247    13.520959038    -1.427998128
 C       -0.623226789    -0.872239120    -1.530629991
 C       -0.610547855    -0.880877525     1.531652768
 H        1.268128766     2.723062901    -0.268428161
 H        0.345402650     4.968550246    -0.260593158
 H       -3.621093898     3.382535176     0.266355719
 H       -2.740577046     1.115471879     0.264705932
 H       -3.380708222     5.698618786     0.137326370
 H       -0.512714971     6.803299313    -0.241617986
 H       -0.274328354     9.120155894    -0.369259951
 H       -1.157960539    11.387183101    -0.365381823
 H       -5.168357314     9.774791727     0.150281059
 H       -4.239107508     7.528802932     0.156999749
 H       -5.921078279    11.927990749    -1.464786012
 H       -6.560124319    13.262061497     1.284662035
 H       -8.814962396    13.592743875     1.778466184
 H      -11.187707270    13.432589407     1.243220010
 H      -10.189312523    11.653277682    -2.572266695
 H       -7.818208022    11.753007698    -1.985474847
 H      -13.646063477    12.716520221    -2.647333375
 H      -12.163536130    11.861039122    -3.108758642
 H      -12.128940795    13.637408673    -2.863841533
 H      -15.304903947    17.296082067     0.788939098
 H      -13.966575807    17.315106090    -0.396619010
 H      -13.941247469    18.406477416     1.026495135
 H      -12.133198570    15.222636800     3.389889981
 H       -9.692801788    15.374721880     3.731338070
 H       -9.396101976    18.074435179     0.387189842
 H      -11.810633168    17.903890672     0.023171565
 H       -7.596049408    16.192036313     3.174042551
 H       -7.445896354    18.150536502     0.745820685
 H       -6.854605969    20.037346800     2.779985660
 H       -6.245806362    22.352249266     3.226096665
 H       -2.156906405    21.527692055     2.162672693
 H       -2.719687705    19.211201464     1.697733609
 H       -4.711451214    24.106209093     3.341775883
 H       -1.781314431    23.473213692     2.564996618
 H       -4.334265195    26.052774154     3.747353163
 H       -3.771912933    28.368805826     4.206218425
 H        0.357197291    27.543899105     3.107347895
 H       -0.247719588    25.228321752     2.676964840
 H      -14.236774491    12.527885175    -0.438542097
 H      -13.036031468    12.565675761     0.865496190
 H      -12.318478883    14.927614627    -0.268180388
 H      -13.914122565    14.866456302    -1.004124633
 H      -15.062284665    14.964614576     1.133658441
 H      -13.653788776    14.353022972     2.028489168
 H        2.266943229    -1.029291227     0.053873453
 H        2.273157171     0.555481521     0.865314793
 H        2.275954283     0.462587212    -0.916712243
 H       -2.422797415    32.086800795     3.856535105
 H       -3.514694241    30.806050640     4.434651590
 H       -3.080017206    30.893888707     2.708053362
 H       -1.489518725    29.741350041     6.509264360
 H        0.191392603    29.402550270     6.032922299
 H       -0.397284724    31.084787021     6.084153059
 H       -0.075853275    30.304441898     1.854038666
 H        0.419314365    31.522739444     3.056239133
 H        1.110257653    29.883737475     3.116106678
 H       -5.184015466    16.963437496     4.238519577
 H       -4.988179994    15.560552142     3.153991005
 H       -3.624494136    16.676722006     3.433537298
 H       -4.580753159    17.823789338    -0.537199887
 H       -3.364872816    16.937327299     0.418211215
 H       -4.883729359    16.134894327    -0.064308422
 H       -4.114186725    12.651927190     2.372740935
 H       -2.528233230    13.232616649     1.812439138
 H       -3.965899151    14.270095970     1.630703277
 H       -3.226896212    13.062153798    -2.426600333
 H       -3.557607293    14.531268584    -1.474526482
 H       -2.030646710    13.642120100    -1.240707317
 H       -0.279150925    -0.363923629    -2.449656126
 H       -0.265764695    -1.916057093    -1.572938716
 H       -1.727094880    -0.895175028    -1.561600905
 H       -0.274711730    -0.364651778     2.449486434
 H       -1.713303235    -0.926012341     1.563290057
 H       -0.233198511    -1.917662824     1.576135027

