139   

Si        0.000000000     0.000000000     0.000000000
 C        1.870356848     0.000000000     0.000000000
 C       -0.619468943     1.737791205     0.000000000
 C        0.045601845     2.723472081    -0.737941303
 C       -0.416465807     4.038544807    -0.742816595
 C       -1.552993206     4.397843806    -0.013180247
 C       -2.220763467     3.408790500     0.719799162
 C       -1.763802720     2.093233222     0.723346258
 C       -2.072700956     5.760823488     0.011292145
 C       -1.529084637     6.797025334    -0.649295255
 C       -2.049444295     8.159395321    -0.624193931
 C       -3.186876711     8.518001572     0.106275902
 C       -3.649481126     9.832217035     0.102010084
 C       -2.983289082    10.820205985    -0.634815542
 C       -1.848932289    10.462204709    -1.370031281
 C       -1.391231147     9.146116172    -1.368411157
Si       -3.630409572    12.546067551    -0.611754409
 C       -3.683208765    13.228011351     1.086768003
 C       -3.312266532    12.601365715     2.210598592
 C       -3.382220700    13.211706718     3.541781153
 C       -2.967304628    12.464793422     4.654669819
 C       -3.016351426    13.002338361     5.931691892
 C       -3.488712059    14.314140820     6.131249347
 C       -3.919368266    15.059070969     5.024720531
 C       -3.876969461    14.501738412     3.751100408
 N       -3.510752665    14.799551365     7.468436592
 C       -2.191786333    14.917643720     8.116169101
 C       -4.410566451    15.931377901     7.731994329
 C       -1.476106496    16.285172689     8.051077712
 C       -1.438523761    16.966910751     6.668852926
 N       -0.144742780    17.117801721     5.981025017
 C        0.203674141    16.057294473     5.082645088
 C       -0.074228187    14.707727309     5.321179785
 C        0.300996633    13.746367986     4.393031418
 C        0.944097741    14.112795556     3.203588459
 C        1.210729910    15.465081490     2.966103163
 C        0.845190620    16.433487170     3.892802389
 C        0.982609963    17.512216021     6.843507146
 C        1.312382570    13.048306938     2.268514921
 C        1.929195089    13.234708735     1.094807617
Si        2.376519743    11.874883786    -0.054273772
 C        1.843718517    10.263969283     0.670673838
 C        2.712584704     9.172842304     0.772613031
 C        2.275518206     7.970662169     1.326103593
 C        0.968500788     7.838288819     1.810195876
 C        0.101009622     8.929430126     1.704703620
 C        0.527796732    10.124093296     1.129814467
 C        0.551815111     6.562342155     2.381783965
 C       -0.681047811     6.312416332     2.854319407
 C       -1.109755707     5.041839120     3.427816759
 C       -0.258677065     3.939800847     3.542216456
 C       -0.712634827     2.743535926     4.097933296
 C       -2.031077835     2.624230419     4.547242885
 C       -2.887962517     3.727065171     4.430491190
 C       -2.432059118     4.919732401     3.876386446
Si       -2.662102163     1.056157999     5.286809659
 C       -1.253949516    -0.123352120     5.634737298
 C       -3.551453592     1.438639945     6.885255829
 C       -3.840980417     0.270609184     4.066002741
 C        1.498236256    12.147576546    -1.679954733
 C        4.225252696    11.906898232    -0.320918171
 C       -2.524220337    13.668179191    -1.618963847
 C       -5.358353522    12.547425013    -1.320965336
 C       -0.642581371    -0.860448592    -1.528488843
 C       -0.597223642    -0.892913236     1.530837712
 H        0.940893435     2.503554918    -1.325048007
 H        0.121466380     4.789153898    -1.319346340
 H       -3.102066314     3.669095320     1.304739509
 H       -2.325657086     1.367675306     1.317770509
 H       -2.967959247     5.896195000     0.625094707
 H       -0.629352151     6.661455369    -1.256539305
 H       -3.722366284     7.767022824     0.683807254
 H       -4.544599446    10.052485418     0.691720263
 H       -1.293392387    11.188382474    -1.969897216
 H       -0.503769044     8.887378257    -1.943776144
 H       -4.063545582    14.263016293     1.117009483
 H       -2.918355042    11.575994924     2.218517280
 H       -2.597450795    11.448075767     4.515627464
 H       -2.708324931    12.407582279     6.789177215
 H       -4.290973212    16.072203320     5.148975843
 H       -4.217561038    15.099162091     2.904545113
 H       -4.500348654    16.063090552     8.824554280
 H       -5.417726204    15.689730107     7.347867646
 H       -4.087812483    16.888323854     7.293955944
 H        0.679633134    18.364163381     7.473266051
 H        1.815108619    17.850641464     6.200428807
 H        1.359942404    16.704670093     7.490543689
 H       -0.577777354    14.405221586     6.235464214
 H        0.080343684    12.697101170     4.592913599
 H        1.705208527    15.768345096     2.044371323
 H        1.044296064    17.486610283     3.703704357
 H        1.038301237    12.049415544     2.643686660
 H        2.205053375    14.239418007     0.743728393
 H        3.747511580     9.222276907     0.425803069
 H        2.961839004     7.128631710     1.386304798
 H       -0.927255412     8.848501909     2.056190120
 H       -0.211278273    10.930146348     1.042480109
 H        1.324908019     5.789384944     2.399236953
 H       -1.454698268     7.086145404     2.826762083
 H        0.769235459     4.004424312     3.189152744
 H       -0.000606638     1.915968173     4.157980432
 H       -3.928191491     3.691183091     4.764831036
 H       -3.110277367     5.766845930     3.795612359
 H       -2.353478892    14.658176183     9.191670976
 H       -1.518512228    14.126125429     7.712330377
 H       -1.960714989    16.974166292     8.769525581
 H       -0.447351907    16.146732562     8.435767778
 H       -2.134034018    16.459966264     5.962241049
 H       -1.826770499    18.010242478     6.776900977
 H        2.270571768    -1.026302126     0.072448632
 H        2.269708623     0.575272715     0.854759307
 H        2.278898810     0.448713025    -0.922030178
 H       -1.618950280    -1.047234088     6.117420177
 H       -0.508082944     0.330132779     6.311995298
 H       -0.730276238    -0.420441840     4.708638492
 H       -2.879521326     1.939946676     7.605600790
 H       -4.416553158     2.104930632     6.723159752
 H       -3.926630325     0.518522976     7.366598056
 H       -3.327600053     0.011436074     3.122196662
 H       -4.279769961    -0.657172682     4.472289406
 H       -4.673311329     0.951432995     3.814180430
 H        0.408760494    12.261854618    -1.528737947
 H        1.861296658    13.058874940    -2.186018579
 H        1.655511422    11.297632511    -2.367287717
 H        4.768920220    11.732030238     0.625595664
 H        4.545148903    11.133069662    -1.040218397
 H        4.558502148    12.883147515    -0.715201979
 H       -1.505979584    13.715698869    -1.188218029
 H       -2.437395263    13.323080875    -2.663549335
 H       -2.916625683    14.700313804    -1.642956977
 H       -6.038476802    11.907480077    -0.730645384
 H       -5.789833631    13.563417040    -1.338094830
 H       -5.363963045    12.164516385    -2.357466256
 H       -0.301084386    -0.353602268    -2.448836696
 H       -0.298746639    -1.908182527    -1.576995110
 H       -1.747284050    -0.869362302    -1.550401243
 H       -0.279080249    -0.361752601     2.446386034
 H       -1.698164812    -0.973241016     1.555099067
 H       -0.190621325    -1.918046893     1.580742515

