139   

Si        0.000000000     0.000000000     0.000000000
 C        1.869404205     0.000000000     0.000000000
 C       -0.632744828     1.734290716     0.000000000
 C        0.064808052     2.744090429    -0.672176753
 C       -0.410413819     4.054906183    -0.674081622
 C       -1.596678466     4.385942496    -0.012978958
 C       -2.296519113     3.372697543     0.654983538
 C       -1.822325020     2.063072729     0.661473600
 C       -2.132169296     5.743188433     0.011999846
 C       -1.559092983     6.802836989    -0.583485118
 C       -2.095751446     8.159764372    -0.557709705
 C       -1.394394766     9.174668120    -1.222659391
 C       -1.867810599    10.484295711    -1.225415864
 C       -3.061157101    10.807891865    -0.567908870
 C       -3.763802145     9.796884460     0.095614568
 C       -3.283322780     8.487782177     0.102034880
Si       -3.693025344    12.542213578    -0.568544468
 C       -5.472122535    12.504666757    -0.137134113
 C       -6.033771450    13.110833110     0.917228552
 C       -7.462883690    13.057302132     1.229051093
 C       -7.937550125    13.733006196     2.362903919
 C       -9.280360909    13.712883361     2.700726727
 C      -10.200042364    12.964984010     1.932497166
 C       -9.723989218    12.284674819     0.795372184
 C       -8.381747544    12.353411427     0.445988021
 N      -11.558292560    12.955716538     2.289300317
 C      -11.874460203    12.995950340     3.727890609
 C      -12.448504290    12.065757213     1.527509072
 C      -11.200157936    11.871859882     4.542145476
 C      -12.027656246    11.485257842     5.781817594
 N      -12.840169352    10.258423287     5.615534926
 C      -13.748471895    10.316095459     4.523896127
 C      -14.758612741    11.297820718     4.569354058
 C      -15.673485639    11.403375584     3.534970433
 C      -15.634296161    10.521367562     2.443354053
 C      -14.645929411     9.535454125     2.415596155
 C      -13.715675744     9.422486636     3.443840615
 C      -12.027583344     9.032255629     5.705738985
 C      -16.625547365    10.677382381     1.376528583
 C      -16.688470198     9.899058163     0.288430558
Si      -17.919467972    10.076192285    -1.057928342
 C      -19.057952641    11.481129636    -0.696453714
 C      -19.840818552    11.448820761     0.466270054
 C      -20.707979337    12.496426765     0.762205452
 C      -20.814326863    13.602652340    -0.092153599
 C      -20.031991901    13.632086211    -1.249337653
 C      -19.162575125    12.582912274    -1.549492325
 C      -21.737774993    14.675792474     0.261674051
 C      -21.935048972    15.786804872    -0.468251518
 C      -22.858658463    16.859828632    -0.114084427
 C      -23.641003733    16.830428678     1.043083535
 C      -24.511188530    17.878831134     1.342556404
 C      -24.613774981    18.983405837     0.491792742
 C      -23.830285153    19.015629007    -0.669851357
 C      -22.966500866    17.965519924    -0.968627211
Si      -25.757415539    20.384078712     0.864772140
 C      -26.409626284    20.256494357     2.611796210
 C      -24.831827732    21.997348325     0.677354247
 C      -27.182735605    20.320178450    -0.341612583
 C      -16.994838886    10.359639481    -2.656372362
 C      -18.918047457     8.502422909    -1.178734221
 C       -2.703002629    13.539304554     0.660917900
 C       -3.525855614    13.283259438    -2.275615456
 C       -0.632330928    -0.854641133    -1.536763866
 C       -0.603654730    -0.906625361     1.519604540
 H        0.997081797     2.546798760    -1.208735495
 H        0.153870240     4.822808992    -1.200432412
 H       -3.222600754     3.608229471     1.176355737
 H       -2.410622645     1.316407602     1.201815435
 H       -3.068116153     5.855184825     0.567412821
 H       -0.623356420     6.691507813    -1.139189982
 H       -0.467990640     8.939620502    -1.743162374
 H       -1.277725011    11.234379400    -1.758717352
 H       -4.701444548     9.994010866     0.626497716
 H       -3.847127737     7.718867773     0.627208776
 H       -6.082226548    11.921985692    -0.846706174
 H       -5.454780350    13.701265285     1.639706619
 H       -7.241231400    14.296414201     2.984716987
 H       -9.622974051    14.278430630     3.562308964
 H      -10.397361015    11.701847589     0.174775832
 H       -8.042758180    11.829961494    -0.449630606
 H      -13.493193003    12.196995002     1.867512498
 H      -12.196622004    10.997589093     1.628928288
 H      -12.425357264    12.347711760     0.459935260
 H      -11.528398509     9.012633573     6.690802017
 H      -11.257325069     8.937309875     4.924553080
 H      -12.689196706     8.149261969     5.665038579
 H      -14.821499143    11.963980407     5.427406984
 H      -16.444259940    12.174320766     3.577759450
 H      -14.597834716     8.834977443     1.580857241
 H      -12.957942548     8.646405565     3.388095848
 H      -17.322962325    11.509459785     1.552797538
 H      -15.976385187     9.073332938     0.133340574
 H      -19.801488709    10.610994988     1.169796583
 H      -21.309761762    12.453717488     1.668274069
 H      -20.094757667    14.479097186    -1.930298715
 H      -18.575587426    12.663358310    -2.468602751
 H      -22.285806549    14.518289039     1.195327998
 H      -21.387850981    15.944478865    -1.402581730
 H      -23.578255784    15.983206661     1.723818235
 H      -25.098072150    17.797942936     2.261626815
 H      -23.869117619    19.852828703    -1.372527856
 H      -22.367324843    18.007652726    -1.876530524
 H      -11.575098269    13.993298803     4.122543856
 H      -12.982764752    12.948987405     3.840439643
 H      -11.043523792    10.985536888     3.897156328
 H      -10.182887267    12.185141437     4.840551879
 H      -11.357614099    11.332219747     6.657307324
 H      -12.714789869    12.310559399     6.073554870
 H        2.269053991    -1.026863288     0.075862945
 H        2.269067259     0.575763970     0.854598364
 H        2.279273943     0.446323837    -0.922880060
 H      -27.041497583    21.126494964     2.865731871
 H      -25.586435429    20.220534639     3.347806243
 H      -27.025804627    19.350786922     2.751871523
 H      -23.958671420    22.036958772     1.353920521
 H      -24.458301712    22.136966085    -0.352239493
 H      -25.477960339    22.860464391     0.916292580
 H      -27.739120850    19.369334367    -0.253364532
 H      -27.898185575    21.142418509    -0.164529224
 H      -26.832291119    20.400912764    -1.386018466
 H      -16.373553773    11.272628915    -2.605543694
 H      -16.319824656     9.515728722    -2.885667194
 H      -17.687753135    10.469136517    -3.509485557
 H      -19.453183121     8.290406173    -0.235354807
 H      -19.676855913     8.572987817    -1.979288132
 H      -18.277627778     7.631079583    -1.401585626
 H       -2.786824031    13.118011830     1.679441999
 H       -1.629991588    13.549869645     0.398583605
 H       -3.047386141    14.587939550     0.700210798
 H       -4.048518031    12.670404230    -3.032289552
 H       -3.962191351    14.298010286    -2.313550850
 H       -2.469107637    13.363274889    -2.583690448
 H       -0.289070196    -0.340793505    -2.452674773
 H       -0.282515832    -1.900552049    -1.589242864
 H       -1.736819127    -0.869647531    -1.562615901
 H       -0.309150385    -0.377678675     2.444120561
 H       -1.703167932    -1.006236559     1.527545093
 H       -0.180324706    -1.925551869     1.570858816

