139   

Si        0.000000000     0.000000000     0.000000000
 C        1.869257878     0.000000000     0.000000000
 C       -0.646902979     1.729234488     0.000000000
 C        0.127626666     2.790013030     0.480738828
 C       -0.371092376     4.092532755     0.476039989
 C       -1.655882796     4.363817627    -0.002097971
 C       -2.432330583     3.299342346    -0.478886991
 C       -1.936295202     1.998288727    -0.477208776
 C       -2.220000228     5.709411859    -0.026712918
 C       -1.583449801     6.814306240     0.397441162
 C       -2.149341652     8.159331560     0.372023283
 C       -3.435095075     8.426657683    -0.107101958
 C       -3.937327160     9.727473726    -0.113477698
 C       -3.157880388    10.790647402     0.353451814
 C       -1.869080083    10.527430021     0.833994233
 C       -1.373847456     9.225936928     0.845517153
Si       -3.812404416    12.515338971     0.349506806
 C       -2.380874461    13.659121643     0.306635422
 C       -2.094341367    14.579836243     1.235827600
 C       -0.939804596    15.479297912     1.170065529
 C       -0.745762996    16.404263031     2.207968680
 C        0.329797448    17.276393579     2.193062221
 C        1.269978460    17.223434526     1.143561179
 C        1.077683198    16.304003721     0.102158198
 C       -0.027836314    15.459812415     0.112298772
 N        2.346068508    18.144985419     1.190927126
 C        3.238030119    18.005836868     2.359961130
 C        3.058048583    18.372654969    -0.075335404
 C        4.413289006    17.023783389     2.212213843
 C        4.003692763    15.546588559     2.063711342
 N        3.557334200    14.879046281     3.296835545
 C        4.367459998    14.990587100     4.434071448
 C        5.773210132    14.990414918     4.289876000
 C        6.591166377    15.099710610     5.401777752
 C        6.053421817    15.165059228     6.695842685
 C        4.663534750    15.134723860     6.837879676
 C        3.826595903    15.042441377     5.733641593
 C        2.102804747    14.866002828     3.495442884
 C        6.965019797    15.280066860     7.834664686
 C        6.571083299    15.350357752     9.113546758
Si        7.705183583    15.494304638    10.543146961
 C        9.450910497    15.526244596     9.944745646
 C       10.254297693    14.382771374     9.991172829
 C       11.571852469    14.422375195     9.535234374
 C       12.112101092    15.600576256     9.013016144
 C       11.303137486    16.743706606     8.960668867
 C        9.988865636    16.708323787     9.418721825
 C       13.484366532    15.688575989     8.524655746
 C       14.360716222    14.669820489     8.518840284
 C       15.733168944    14.757344365     8.030552142
 C       16.275447223    15.936340626     7.511785911
 C       17.592851092    15.974881231     7.056029838
 C       18.400556004    14.834301578     7.115133969
 C       17.859306104    13.651358148     7.634336900
 C       16.541392026    13.613970572     8.082700104
Si       20.145531537    14.878811493     6.513360911
 C       20.823622865    16.617249502     6.629529657
 C       21.205641587    13.744639875     7.555018247
 C       20.168067244    14.310860761     4.733358797
 C        7.327026338    17.074151304    11.467815624
 C        7.427345128    14.034149522    11.676382467
 C       -4.842194872    12.818850277    -1.178719306
 C       -4.852094683    12.762424180     1.879819434
 C       -0.602469141    -0.897788534    -1.525395949
 C       -0.629513008    -0.861541714     1.533932874
 H        1.139465400     2.640574979     0.867763177
 H        0.253658937     4.900849447     0.852438712
 H       -3.435889979     3.488344877    -0.855690096
 H       -2.588361421     1.209543713    -0.862512818
 H       -3.236054008     5.771443405    -0.427757685
 H       -0.567538015     6.753021027     0.798994159
 H       -4.058032356     7.615922298    -0.480465936
 H       -4.950037052     9.874654364    -0.498323231
 H       -1.216409541    11.322130884     1.211178549
 H       -0.370686738     9.038923064     1.225214833
 H       -1.743719471    13.530812926    -0.583932705
 H       -2.711373634    14.732272438     2.131104182
 H       -1.459127241    16.448840476     3.031574068
 H        0.447724703    18.017418267     2.981661674
 H        1.781163749    16.247239452    -0.723272181
 H       -0.167371669    14.762299695    -0.715204278
 H        3.746611107    19.226516843     0.052469884
 H        2.327555001    18.658273692    -0.853630404
 H        3.636837052    17.508507504    -0.436768237
 H        1.588358555    14.712258785     2.528481244
 H        1.707901994    15.792225656     3.943984030
 H        1.831123109    14.009186480     4.139232853
 H        6.218667779    14.900753866     3.303640756
 H        7.673830131    15.118003199     5.267593257
 H        4.219590568    15.183443641     7.833160706
 H        2.752987871    15.027075040     5.889127822
 H        8.024408547    15.302998166     7.539226643
 H        5.505363333    15.322378828     9.386181618
 H        9.886382689    13.430507454    10.383753511
 H       12.178174898    13.519904937     9.587700753
 H       11.704249748    17.671536499     8.557317381
 H        9.405407011    17.631334696     9.351358967
 H       13.773441277    16.673837406     8.147191155
 H       14.072020540    13.684257782     8.896203832
 H       15.669478431    16.839101488     7.459066215
 H       17.959885089    16.925964782     6.660341716
 H       18.442705008    12.729169932     7.705613277
 H       16.138206275    12.684490991     8.480737405
 H        3.642071751    19.026339678     2.567958463
 H        2.632811815    17.727634627     3.251612061
 H        5.039703240    17.310797889     1.346851756
 H        5.074611091    17.139068089     3.097649591
 H        3.204843165    15.448608313     1.293610464
 H        4.871811804    14.963197772     1.670700919
 H        2.267383332    -1.028496125    -0.063406632
 H        2.279286518     0.455637604     0.918419522
 H        2.270002460     0.564179028    -0.861548643
 H       21.889825352    16.649643417     6.342662666
 H       20.745457997    17.009079058     7.659884937
 H       20.282586673    17.313327078     5.965011575
 H       21.142570211    14.010871723     8.625812478
 H       20.897466963    12.689261226     7.455539505
 H       22.267985452    13.807702743     7.259352128
 H       19.544982775    14.963400583     4.095539669
 H       21.192143012    14.319486952     4.320719530
 H       19.775803999    13.282864441     4.633732140
 H        7.395049473    17.957511534    10.808285063
 H        6.307839466    17.057300519    11.892525866
 H        8.034522939    17.225811466    12.302797180
 H        7.550516911    13.075839050    11.140283510
 H        8.138462870    14.041727988    12.521543084
 H        6.407160005    14.044033294    12.099635781
 H       -4.273614027    12.594898099    -2.099556317
 H       -5.751102107    12.192139030    -1.187655360
 H       -5.165958471    13.874064291    -1.237944245
 H       -4.261567995    12.595541962     2.799183886
 H       -5.267308258    13.784831174     1.926164305
 H       -5.701844727    12.056356219     1.905053402
 H       -0.305693514    -0.363559313    -2.446248608
 H       -0.180433975    -1.916877547    -1.582179410
 H       -1.702068531    -0.994575501    -1.536849887
 H       -0.284924069    -0.350920671     2.451356930
 H       -1.733824074    -0.877480817     1.562147568
 H       -0.278547570    -1.907320464     1.581451948

