139   

Si        0.000000000     0.000000000     0.000000000
 C        1.869166447     0.000000000     0.000000000
 C       -0.653725459     1.726508951     0.000000000
 C        0.175971200     2.821527978    -0.259106479
 C       -0.337791262     4.118468240    -0.254381914
 C       -1.690975874     4.349766079     0.005584244
 C       -2.521984545     3.250662269     0.261988166
 C       -2.012072540     1.955266608     0.258216487
 C       -2.273088680     5.687815513     0.021152805
 C       -1.590130035     6.822463797    -0.207314614
 C       -2.174285511     8.159781735    -0.191269637
 C       -1.345628802     9.260529978    -0.447028540
 C       -1.858516440    10.555286719    -0.442313954
 C       -3.217278835    10.778113436    -0.188709329
 C       -4.047104279     9.681340493     0.066272819
 C       -3.528885869     8.386917832     0.067749397
Si       -3.907046455    12.489703528    -0.180136781
 C       -5.708484617    12.381618105    -0.495515421
 C       -6.670814976    12.809810848     0.331968369
 C       -8.103258190    12.707429435     0.047503867
 C       -9.020044353    13.191728055     0.992354140
 C      -10.385029779    13.118506437     0.771169436
 C      -10.887373470    12.506710304    -0.398709760
 C       -9.968727440    12.019204605    -1.347085274
 C       -8.602155378    12.141651251    -1.128458897
 N      -12.274849760    12.442999608    -0.603592486
 C      -13.130117212    12.240675781     0.579457741
 C      -12.747179241    11.761705870    -1.816914860
 C      -12.767859668    11.030264686     1.456723414
 C      -13.218098496     9.677050375     0.880881874
 N      -14.645275356     9.359026478     1.059459342
 C      -15.163193562     9.383190716     2.363031904
 C      -14.340391638     9.016420609     3.451182336
 C      -14.837696117     9.035383466     4.743657311
 C      -16.175037551     9.368213226     5.003783212
 C      -16.995461867     9.701130132     3.922684153
 C      -16.509541347     9.705399368     2.621529578
 C      -15.514684227     9.843645714    -0.021723844
 C      -16.648968217     9.372844178     6.388860184
 C      -17.902405904     9.674293569     6.752452116
Si      -18.537359120     9.692543337     8.470691529
 C      -19.138025628    11.397952558     8.839956868
 C      -18.562969694    12.499628271     8.193989233
 C      -19.010765004    13.789567933     8.467290381
 C      -20.036694650    14.010987481     9.395674908
 C      -20.605235568    12.909171313    10.041049734
 C      -20.161549258    11.615736166     9.767570316
 C      -20.471552374    15.381042003     9.648103254
 C      -21.443701709    15.728641075    10.508384749
 C      -21.879008632    17.098359878    10.761264704
 C      -21.311723198    18.201281406    10.116929337
 C      -21.759023341    19.493736793    10.389311635
 C      -22.792354595    19.711496066    11.306874607
 C      -23.363502264    18.607647059    11.952606800
 C      -22.909555887    17.318609778    11.684600050
Si      -23.387165204    21.421351238    11.670002320
 C      -23.132942610    22.520141500    10.178921257
 C      -25.208148450    21.387101498    12.092261707
 C      -22.413103836    22.086251423    13.119331189
 C      -19.942600375     8.466339402     8.581482507
 C      -17.209169517     9.251116114     9.706303704
 C       -3.538407130    13.270907471     1.474935213
 C       -3.140307918    13.502865626    -1.549919100
 C       -0.625999198    -0.868313076    -1.531620744
 C       -0.607334778    -0.885770808     1.530211923
 H        1.242616069     2.704058850    -0.469123232
 H        0.330218183     4.953824058    -0.457007352
 H       -3.579354959     3.408789591     0.466703244
 H       -2.708783771     1.137999227     0.464765679
 H       -3.344849350     5.717385450     0.239414808
 H       -0.518562860     6.793682018    -0.425484828
 H       -0.288007918     9.104916784    -0.651086429
 H       -1.164510284    11.374961808    -0.646795199
 H       -5.116770514     9.798050199     0.270829814
 H       -4.194116439     7.549734359     0.271612873
 H       -5.956576160    11.919977793    -1.465090195
 H       -6.454825086    13.276075802     1.302484817
 H       -8.654223985    13.646663137     1.913789511
 H      -11.068556110    13.537350786     1.504601843
 H      -10.310297448    11.546042449    -2.261513677
 H       -7.911820139    11.769521498    -1.887679959
 H      -13.846247234    11.826419871    -1.881130914
 H      -12.452964195    10.701034757    -1.875559015
 H      -12.346601625    12.288068890    -2.704323621
 H      -14.996290323     9.761846740    -0.991404970
 H      -15.848188895    10.885919469     0.111661857
 H      -16.407849477     9.192844750    -0.083619621
 H      -13.309533041     8.718417784     3.281589372
 H      -14.177714278     8.770538948     5.570808662
 H      -18.040835180     9.963973340     4.095411307
 H      -17.183303504     9.972113713     1.814287593
 H      -15.869547346     9.101992985     7.113388604
 H      -18.664157326     9.939196148     6.001302333
 H      -17.758946436    12.385988286     7.459095720
 H      -18.555655054    14.633791466     7.952531626
 H      -21.404198364    13.053550954    10.765981199
 H      -20.646144485    10.793591409    10.301065559
 H      -19.938266507    16.143305877     9.072312016
 H      -21.976821454    14.966026737    11.083886517
 H      -20.510377519    18.058820262     9.394033049
 H      -21.274171475    20.315882600     9.855539051
 H      -24.174329214    18.716064264    12.678291605
 H      -23.364865995    16.473840716    12.198322023
 H      -13.070630749    13.172828019     1.193048647
 H      -14.189857498    12.175250865     0.249467070
 H      -11.670882442    11.004171752     1.622552125
 H      -13.208508368    11.172148318     2.465318827
 H      -12.970246115     9.615219274    -0.201476752
 H      -12.632211005     8.855737941     1.361456622
 H        2.267074131    -1.028901053     0.059725515
 H        2.271820946     0.560592092     0.862788960
 H        2.277132848     0.457689751    -0.918496017
 H      -23.548972687    23.528782747    10.351241014
 H      -23.632190798    22.103692589     9.285352358
 H      -22.062664773    22.642050748     9.937085062
 H      -25.797655071    20.923025252    11.280869358
 H      -25.404297265    20.815245717    13.015960934
 H      -25.601692295    22.407617217    12.246189598
 H      -21.332123262    22.124057998    12.893679621
 H      -22.734882212    23.108108083    13.386416349
 H      -22.539694536    21.450817675    14.014287063
 H      -20.784781199     8.758777323     7.928633816
 H      -19.615491578     7.458180905     8.267585070
 H      -20.330856905     8.383211630     9.611409752
 H      -16.360427599     9.957212604     9.654630925
 H      -17.597659897     9.281323915    10.740217195
 H      -16.814169284     8.235155234     9.528050275
 H       -3.984830655    12.689536448     2.302268910
 H       -2.450561785    13.322615462     1.660853194
 H       -3.935992724    14.299758389     1.532945149
 H       -3.267614102    13.013230833    -2.532347632
 H       -3.608583754    14.501980153    -1.614999285
 H       -2.058538151    13.652647894    -1.389509137
 H       -0.278642991    -0.361302027    -2.450094746
 H       -0.274137243    -1.914009085    -1.574336650
 H       -1.730036232    -0.885156616    -1.563086151
 H       -0.286738460    -0.360554146     2.448412830
 H       -1.709186688    -0.950919901     1.554356445
 H       -0.212391780    -1.915788388     1.580864349

