139   

Si        0.000000000     0.000000000     0.000000000
 C        1.869121870     0.000000000     0.000000000
 C       -0.656333797     1.725411586     0.000000000
 C        0.170026429     2.821821299     0.263844066
 C       -0.346494252     4.117636397     0.258835887
 C       -1.698770722     4.346602355    -0.007976221
 C       -2.526354023     3.246179934    -0.269295839
 C       -2.014081634     1.951743845    -0.263658180
 C       -2.283146873     5.683531433    -0.023996924
 C       -1.602583056     6.818263890     0.210523341
 C       -2.186688621     8.155164966     0.194557455
 C       -3.540004844     8.383547667    -0.072520695
 C       -4.056099704     9.678977503    -0.077469972
 C       -3.224965418    10.774052968     0.180624896
 C       -1.869126632    10.548657705     0.446462174
 C       -1.357116843     9.253600246     0.453513197
Si       -3.894556470    12.494053981     0.177292458
 C       -2.471426087    13.644239194     0.163859215
 C       -2.211994539    14.558107981     1.107776479
 C       -1.064033276    15.467240799     1.071865419
 C       -0.898588325    16.383041355     2.121349496
 C        0.170967594    17.264594774     2.134274556
 C        1.131762008    17.218995990     1.106986757
 C        0.973595370    16.305318289     0.056973401
 C       -0.125791245    15.453986222     0.036711529
 N        2.202027880    18.156447304     1.188533822
 C        3.126579565    17.944198777     2.319681028
 C        2.879418527    18.449107643    -0.084655429
 C        4.245297712    16.898772034     2.121827593
 C        3.953268842    15.532867311     2.774984253
 N        3.139809349    14.685664747     1.883233866
 C        2.109268269    13.919892479     2.451151744
 C        1.329204029    14.460753378     3.496454600
 C        0.309084471    13.719481190     4.067832284
 C       -0.005652163    12.435147350     3.599011765
 C        0.745733098    11.914894774     2.543466372
 C        1.779865508    12.640309226     1.964801648
 C        3.928857330    14.057206605     0.812962046
 C       -1.093791717    11.695831649     4.239888986
 C       -1.485841500    10.466085128     3.882063237
Si       -2.843218896     9.519638839     4.666722246
 C       -3.592169194    10.516495380     6.027988822
 C       -3.612666985    10.068783010     7.351269840
 C       -4.187507130    10.849002086     8.355186395
 C       -4.750564596    12.092831032     8.058953006
 C       -4.728367501    12.541067709     6.730954066
 C       -4.157634138    11.764185352     5.727563678
 C       -5.362190910    12.942255642     9.075684762
 C       -5.449076334    12.632407557    10.380374189
 C       -6.060697427    13.481754549    11.397286908
 C       -6.626088282    14.725778374    11.100642706
 C       -7.200111671    15.504859249    12.103702276
 C       -7.222034364    15.055649292    13.429807217
 C       -6.657247699    13.811016752    13.729144344
 C       -6.084008304    13.034507186    12.724198342
Si       -7.989637646    16.110640932    14.735698497
 C       -9.783175820    16.397712468    14.295035671
 C       -7.890733614    15.278312416    16.406349881
 C       -7.076941874    17.740349117    14.802948139
 C       -4.166816567     9.138609773     3.409812502
 C       -2.127860158     7.916933766     5.307576244
 C       -4.913028533    12.779891111    -1.361412179
 C       -4.944730758    12.731016094     1.702923332
 C       -0.606010338    -0.886658823    -1.530246085
 C       -0.625765045    -0.868685003     1.531526264
 H        1.236029308     2.706205693     0.478072350
 H        0.318876656     4.953905926     0.466134122
 H       -3.583129506     3.402386213    -0.478653078
 H       -2.708540318     1.133253040    -0.473145955
 H       -3.353578463     5.711681650    -0.248142267
 H       -0.532087874     6.789190401     0.434833152
 H       -4.204008797     7.547152159    -0.280469204
 H       -5.121469953     9.796684860    -0.291774834
 H       -1.176900614    11.372780941     0.662724094
 H       -0.299986616     9.095302867     0.658736306
 H       -1.817342662    13.532654762    -0.715602084
 H       -2.840636623    14.690562928     1.998442651
 H       -1.622751864    16.408622607     2.935204005
 H        0.274207847    17.993423401     2.934492329
 H        1.714605607    16.240196373    -0.733148382
 H       -0.235014806    14.751315482    -0.789601380
 H        3.573455948    19.293035830     0.066139972
 H        2.122989073    18.771721490    -0.822751911
 H        3.443116243    17.605610901    -0.512976898
 H        4.668191694    14.772470227     0.416709522
 H        3.257705637    13.793318375    -0.025375651
 H        4.466341857    13.151936155     1.141894923
 H        1.513873373    15.473996504     3.843587291
 H       -0.268730837    14.151733280     4.885713523
 H        0.525809401    10.916784878     2.161697487
 H        2.333484738    12.196224536     1.145131705
 H       -1.566728565    12.252711005     5.061304234
 H       -0.998529673     9.928163724     3.053092697
 H       -3.185227291     9.105798572     7.643712616
 H       -4.192375430    10.476950572     9.377929886
 H       -5.162939796    13.506498682     6.479936620
 H       -4.170443421    12.164279655     4.708046060
 H       -5.764809064    13.887423260     8.700008210
 H       -5.047039759    11.686679891    10.755927477
 H       -6.621927414    15.096573234    10.077220251
 H       -7.626246380    16.468368359    11.810076277
 H       -6.645777119    13.409269137    14.745929415
 H       -5.650167541    12.068758182    12.977385313
 H        3.590396653    18.938366688     2.526216013
 H        2.524464142    17.691809416     3.220908960
 H        4.445476127    16.760519373     1.042639272
 H        5.185852351    17.296893970     2.547938326
 H        4.916706820    15.025505929     3.016459714
 H        3.442062561    15.682917233     3.751280506
 H        2.266835335    -1.029648856    -0.046851023
 H        2.277476434     0.469191488     0.912515946
 H        2.271597707     0.549659951    -0.869822043
 H      -10.289627940    17.020554143    15.053090691
 H      -10.334792383    15.442440147    14.225660140
 H       -9.885073832    16.908050459    13.321004305
 H       -8.418139998    14.307752609    16.407166132
 H       -6.843815926    15.092967573    16.705796254
 H       -8.351973648    15.904711870    17.190867891
 H       -7.108171941    18.263077798    13.830643061
 H       -7.513763961    18.415440093    15.559607787
 H       -6.013016921    17.591818652    15.062784234
 H       -4.667431292    10.056464570     3.053588067
 H       -3.738236360     8.635779581     2.520630825
 H       -4.942650513     8.475462162     3.829646526
 H       -1.314413726     8.096682762     6.032690328
 H       -2.896798409     7.300679481     5.805264037
 H       -1.707295597     7.315081460     4.480659104
 H       -4.322050465    12.593505482    -2.276252416
 H       -5.794787157    12.117085422    -1.395699763
 H       -5.277450160    13.821876784    -1.411078739
 H       -4.336238817    12.621148562     2.620564385
 H       -5.405682226    13.734256437     1.722830643
 H       -5.760335239    11.988390839     1.752965536
 H       -0.283738416    -0.362888107    -2.448629916
 H       -0.211683351    -1.917029259    -1.579208064
 H       -1.707874519    -0.951154322    -1.555854111
 H       -0.281778078    -0.359180946     2.449921511
 H       -1.729801492    -0.889422220     1.561229604
 H       -0.270307473    -1.913101427     1.576072345

