139   

Si        0.000000000     0.000000000     0.000000000
 C        1.869103174     0.000000000     0.000000000
 C       -0.605228802     1.744035804     0.000000000
 C       -0.133596581     2.645098243     0.962325085
 C       -0.580068403     3.965519075     0.976742718
 C       -1.510757019     4.415314619     0.035348348
 C       -1.983166288     3.511735546    -0.924718593
 C       -1.536649586     2.192184761    -0.943300952
 C       -2.007100516     5.787104043     0.010823539
 C       -1.636562467     6.752874247     0.868610649
 C       -2.137798594     8.123102573     0.837480773
 C       -1.669214306     9.035784708     1.792035989
 C       -2.120124398    10.353487329     1.799912620
 C       -3.051482001    10.789093878     0.849892143
 C       -3.519696914     9.880602651    -0.105270160
 C       -3.065826869     8.562438580    -0.110722725
Si       -3.657169028    12.533047901     0.849459183
 C       -5.217875125    12.559168973    -0.104538448
 C       -5.449718945    13.271155096    -1.214828734
 C       -6.721915050    13.253069301    -1.938608762
 C       -6.859821719    14.037331797    -3.092491809
 C       -8.044736450    14.052058982    -3.809801150
 C       -9.145645793    13.280228713    -3.382073706
 C       -9.001208900    12.477438265    -2.239265571
 C       -7.796127722    12.448870018    -1.549149755
 N      -10.338297001    13.320219209    -4.139123108
 C      -10.780875073    14.668801424    -4.554094320
 C      -11.436435978    12.458214277    -3.672295549
 C      -10.752626690    15.743473867    -3.451278618
 C      -12.005176270    15.722225743    -2.553833108
 N      -11.735197025    15.987058294    -1.124200740
 C      -11.128899199    14.894814886    -0.439788350
 C      -11.896719630    13.722005828    -0.306251778
 C      -11.371975921    12.619372266     0.347660917
 C      -10.093812995    12.663475590     0.926481534
 C       -9.348840119    13.839963012     0.815701851
 C       -9.857255212    14.949556747     0.146529023
 C      -11.114714165    17.303364240    -0.897167877
 C       -9.598798658    11.462679128     1.603011168
 C       -8.404549733    11.352895711     2.199914283
Si       -7.828128827     9.823474543     3.036414817
 C       -9.142264163     8.534624198     2.903183978
 C      -10.358238525     8.712996179     3.574172226
 C      -11.363747527     7.752150101     3.486897861
 C      -11.182148771     6.595993760     2.721669645
 C       -9.967150891     6.422160651     2.047071855
 C       -8.958886912     7.379749252     2.135003029
 C      -12.206446437     5.563728324     2.601361776
 C      -13.410928542     5.608281458     3.195435434
 C      -14.435217899     4.575897289     3.075054247
 C      -14.253529200     3.418644375     2.312948965
 C      -15.260003295     2.457279528     2.225677337
 C      -16.469841069     2.628876727     2.906437423
 C      -16.654174974     3.787712061     3.671476578
 C      -15.650203641     4.749403146     3.751173078
Si      -17.807669571     1.361309039     2.796531565
 C      -17.080765530    -0.311967737     2.388030886
 C      -18.707044576     1.246770941     4.431550555
 C      -18.998292860     1.877236076     1.451970675
 C       -6.248816372     9.236033033     2.236216137
 C       -7.504106944    10.201979713     4.836916542
 C       -4.039102521    13.083750362     2.594157195
 C       -2.353202561    13.633106824     0.094942794
 C       -0.611527543    -0.913970240    -1.511466369
 C       -0.638456315    -0.846798594     1.538846921
 H        0.592951078     2.351383131     1.725280005
 H       -0.195681305     4.647886743     1.732903800
 H       -2.707668030     3.840739278    -1.667553333
 H       -1.940035258     1.534078660    -1.717694829
 H       -2.731562211     5.995816942    -0.782503799
 H       -0.911982080     6.547332351     1.661646346
 H       -0.944811363     8.713680124     2.537649470
 H       -1.720444480    11.020269560     2.568500840
 H       -4.247198906    10.167775552    -0.873024549
 H       -3.443539474     7.874787435    -0.865466109
 H       -6.000728356    11.910520091     0.325988320
 H       -4.698404660    13.928571133    -1.669885568
 H       -6.023980962    14.648010500    -3.433737397
 H       -8.121794729    14.651703041    -4.712280286
 H       -9.828201324    11.876299295    -1.868735284
 H       -7.711223484    11.804169220    -0.669616367
 H      -12.280716263    12.519990526    -4.378236372
 H      -11.801395621    12.704021710    -2.660703894
 H      -11.092109339    11.407121200    -3.675735550
 H      -11.772212300    18.081196689    -1.322597242
 H      -10.111713357    17.418570290    -1.336434512
 H      -11.049369311    17.489983704     0.189638330
 H      -12.906958716    13.693828995    -0.708526332
 H      -11.971027668    11.711661097     0.430683477
 H       -8.349884031    13.897426855     1.251318009
 H       -9.245352128    15.842839265     0.061392205
 H      -10.320307769    10.631361111     1.570894561
 H       -7.692856332    12.191650046     2.225417181
 H      -10.559789971     9.598102810     4.185702322
 H      -12.298279752     7.911002264     4.021946276
 H       -9.805024900     5.529343971     1.446024868
 H       -8.032321925     7.189929376     1.584812162
 H      -11.926595537     4.712757491     1.973146563
 H      -13.690584101     6.458339657     3.824788160
 H      -13.319173309     3.258012925     1.777877690
 H      -15.059447547     1.574267380     1.612595904
 H      -17.578091661     3.975830853     4.225387283
 H      -15.813066175     5.644105838     4.349400429
 H      -10.110668175    14.981816465    -5.390822126
 H      -11.797291746    14.594978000    -4.997211150
 H       -9.842747869    15.610939107    -2.828181099
 H      -10.639055200    16.740360133    -3.913833587
 H      -12.737372221    16.487285025    -2.897168694
 H      -12.527402298    14.743734619    -2.634539673
 H        2.270458405    -1.028238217    -0.032307496
 H        2.276740273     0.488505186     0.902479954
 H        2.268264138     0.541058529    -0.877321576
 H      -17.857883017    -1.096932871     2.395857215
 H      -16.308323296    -0.603055901     3.122811122
 H      -16.612518320    -0.322322521     1.388233011
 H      -18.007445940     1.020114108     5.256637437
 H      -19.223534573     2.189570587     4.682625145
 H      -19.469009135     0.447439978     4.413253309
 H      -18.490382674     1.955469974     0.473820727
 H      -19.822498285     1.150645194     1.343428778
 H      -19.447614889     2.862968642     1.668676630
 H       -6.324041249     9.207230971     1.133914222
 H       -5.395458045     9.891601083     2.489043708
 H       -5.977287286     8.220343523     2.578173082
 H       -8.410066441    10.580301186     5.342561109
 H       -7.176890102     9.296345196     5.379335341
 H       -6.714312063    10.964448212     4.955038364
 H       -4.765431170    12.408367491     3.081520601
 H       -3.131033800    13.103911892     3.220891796
 H       -4.473159219    14.099986802     2.604151318
 H       -2.113575144    13.321865586    -0.938479965
 H       -2.683415007    14.686390657     0.059752312
 H       -1.412768910    13.598013116     0.673335625
 H       -0.282771296    -0.419276335    -2.442960136
 H       -0.225668970    -1.948973548    -1.533661267
 H       -1.714116527    -0.973586780    -1.532680380
 H       -0.292563198    -0.335359838     2.454717024
 H       -1.743353314    -0.853145281     1.562973246
 H       -0.297721730    -1.895683679     1.592233826

