139   

Si        0.000000000     0.000000000     0.000000000
 C        1.869295408     0.000000000     0.000000000
 C       -0.611686129     1.740637997     0.000000000
 C       -0.034393458     2.683594746    -0.858502520
 C       -0.486927972     4.001496376    -0.868513379
 C       -1.514309350     4.412267686    -0.013276817
 C       -2.089955369     3.467383796     0.844872300
 C       -1.649244823     2.145710302     0.847424711
 C       -2.016603203     5.781740955     0.007359862
 C       -1.551450860     6.767429660    -0.778375695
 C       -2.041405385     8.140982221    -0.771076370
 C       -1.457830660     9.062877163    -1.649798101
 C       -1.889679000    10.385922177    -1.681591635
 C       -2.928563494    10.813184311    -0.845535290
 C       -3.516120925     9.893220132     0.028952052
 C       -3.073459299     8.571553197     0.066751409
Si       -3.491760626    12.569945262    -0.897366208
 C       -4.191586399    12.969003979     0.747104903
 C       -3.740087209    13.928845096     1.564680212
 C       -4.326256669    14.220284139     2.876014567
 C       -3.775047111    15.249212301     3.653643763
 C       -4.298178333    15.559530325     4.901454421
 C       -5.406056438    14.848734343     5.387535570
 C       -5.973078200    13.833723046     4.607566911
 C       -5.442281441    13.531926704     3.359947713
 N       -5.898663270    15.216727424     6.682001158
 C       -5.108728933    14.629380999     7.793145080
 C       -7.353147196    15.032726920     6.833026358
 C       -4.554819870    13.206242812     7.578322695
 C       -5.003355074    12.170806447     8.624004943
 N       -6.360531864    11.612724446     8.443470548
 C       -6.719382993    11.251560183     7.130308583
 C       -5.800719133    10.511893876     6.352748306
 C       -6.117303561    10.138260274     5.057439678
 C       -7.347309288    10.492045001     4.481704800
 C       -8.265989566    11.195007203     5.264879854
 C       -7.980817188    11.540570424     6.580752483
 C       -7.382841357    12.282647076     9.260879643
 C       -7.643172065    10.076807876     3.108107429
 C       -8.790495764    10.371131345     2.482996640
Si       -9.268577990     9.909502869     0.780205577
 C       -7.957783197     8.937421641    -0.075186942
 C       -7.173801945     9.473739669    -1.099940330
 C       -6.191753442     8.700122826    -1.719988669
 C       -5.988016050     7.370299849    -1.343744505
 C       -6.776396268     6.833391823    -0.316519511
 C       -7.742825697     7.608225349     0.316535860
 C       -4.977507356     6.517084421    -1.957074008
 C       -4.150933971     6.891357974    -2.947986883
 C       -3.145944062     6.018963541    -3.547089458
 C       -2.957763056     4.698342466    -3.131223823
 C       -1.987337209     3.893394165    -3.726806226
 C       -1.166893568     4.402145977    -4.737364235
 C       -1.345866654     5.729528011    -5.150112184
 C       -2.324694012     6.526458777    -4.562489591
Si        0.124575216     3.359319747    -5.542097687
 C       -0.222423818     3.267578377    -7.375381426
 C        1.794008515     4.144680346    -5.235908409
 C        0.118242057     1.635351122    -4.818045689
 C      -10.837035077     8.896036906     0.849435011
 C       -9.588912852    11.499026838    -0.153860697
 C       -2.076215095    13.704687534    -1.335056170
 C       -4.852914341    12.719622834    -2.169849283
 C       -0.633961497    -0.836575657    -1.547523085
 C       -0.613741829    -0.918726630     1.507022477
 H        0.780883595     2.426981260    -1.540778568
 H       -0.030672241     4.713889537    -1.555582712
 H       -2.892038857     3.765219552     1.517335713
 H       -2.139520181     1.452231630     1.535233020
 H       -2.819516636     5.969519782     0.724915873
 H       -0.751423685     6.572591207    -1.500631429
 H       -0.655926608     8.743791005    -2.312894931
 H       -1.390195054    11.061484825    -2.380581912
 H       -4.332662819    10.167931733     0.704320822
 H       -3.548775509     7.871697931     0.752397674
 H       -5.053945392    12.341135635     1.030633600
 H       -2.887457162    14.573080370     1.317124822
 H       -2.919537665    15.810273369     3.279835806
 H       -3.866639629    16.355994448     5.504388583
 H       -6.830227367    13.269552284     4.973597133
 H       -5.902023230    12.736496762     2.769403468
 H       -7.679050953    15.556510321     7.747211996
 H       -7.679570080    13.983273029     6.884673059
 H       -7.867459759    15.513589543     5.981694111
 H       -7.032659582    12.335177706    10.306761597
 H       -8.304872102    11.673408936     9.269114524
 H       -7.630224673    13.301864841     8.925418420
 H       -4.841244555    10.227974179     6.778027074
 H       -5.393147148     9.565670527     4.474632000
 H       -9.238741263    11.467429637     4.851526951
 H       -8.739534035    12.051253891     7.164853986
 H       -6.836563457     9.500189490     2.636606304
 H       -9.575714085    10.955656605     2.992774999
 H       -7.295831072    10.504624671    -1.443067811
 H       -5.579703783     9.144648797    -2.503525750
 H       -6.630170913     5.800029809    -0.007555960
 H       -8.319611895     7.137744045     1.118229136
 H       -4.925892821     5.503536565    -1.546069153
 H       -4.190634675     7.903554146    -3.359779629
 H       -3.570055391     4.282405059    -2.331635282
 H       -1.893409139     2.866993034    -3.358933362
 H       -0.733509150     6.179784124    -5.935533966
 H       -2.451651852     7.554520701    -4.895781280
 H       -4.253934865    15.331912660     7.946160129
 H       -5.712314662    14.676244006     8.723007326
 H       -4.809822494    12.835746065     6.563016112
 H       -3.447716593    13.247986491     7.574288689
 H       -4.299638671    11.302258624     8.600092007
 H       -4.920280353    12.597208270     9.647072048
 H        2.269342455    -1.028789909     0.029364816
 H        2.267867115     0.536588478     0.880331239
 H        2.279565538     0.490663987    -0.899940852
 H        0.529357841     2.651158280    -7.898233041
 H       -0.214948886     4.268723723    -7.840990691
 H       -1.214249117     2.821319803    -7.572262842
 H        1.839279790     5.168695652    -5.646180293
 H        2.016143705     4.211709121    -4.155600147
 H        2.603933424     3.561561246    -5.707430769
 H       -0.855745358     1.137147643    -4.971967888
 H        0.891537955     1.002327762    -5.287439320
 H        0.318171903     1.653587792    -3.731205093
 H      -10.704871963     7.982525797     1.456010017
 H      -11.670147347     9.469427059     1.292082857
 H      -11.149738730     8.579743139    -0.162106224
 H       -8.701301269    12.158122835    -0.147452948
 H       -9.854151824    11.298261764    -1.206727290
 H      -10.422894722    12.066863331     0.294951416
 H       -1.227627043    13.574517234    -0.638604052
 H       -1.699543513    13.514394354    -2.355039138
 H       -2.384150575    14.764920511    -1.291382403
 H       -5.694168781    12.040106869    -1.942177787
 H       -5.254561630    13.747769039    -2.205970837
 H       -4.485683884    12.467744194    -3.180218234
 H       -0.283128154    -0.321172787    -2.459866677
 H       -0.294256511    -1.885347514    -1.604301546
 H       -1.738525608    -0.841738087    -1.575533683
 H       -0.306954863    -0.411621963     2.439564901
 H       -1.714844405    -1.000047573     1.516113565
 H       -0.207805066    -1.945576761     1.540516000

