139   

Si        0.000000000     0.000000000     0.000000000
 C        1.869147173     0.000000000     0.000000000
 C       -0.653263491     1.726829028     0.000000000
 C        0.177203407     2.821396584     0.258579782
 C       -0.335818001     4.118632255     0.253951879
 C       -1.688975597     4.350417478    -0.005304922
 C       -2.520841524     3.251916124    -0.261378361
 C       -2.011585013     1.956250650    -0.257963959
 C       -2.270332003     5.688643044    -0.020757324
 C       -1.586896130     6.823237093     0.207125003
 C       -2.173469192     8.159270926     0.190434166
 C       -1.348660904     9.263125702     0.444897368
 C       -1.865680091    10.556751634     0.439170907
 C       -3.225928861    10.772664806     0.193319139
 C       -4.052939472     9.671744947    -0.058156805
 C       -3.530072817     8.379940841    -0.063719896
Si       -3.943734811    12.473232655     0.178458437
 C       -5.738953682    12.272278486     0.477986155
 C       -6.740172707    12.643495602    -0.329640245
 C       -8.155403898    12.438966831    -0.000520635
 C       -9.136275311    12.860871070    -0.909171511
 C      -10.485630794    12.684115740    -0.632183520
 C      -10.876892956    12.099687399     0.580691431
 C       -9.905937786    11.685308962     1.499118400
 C       -8.558347538    11.855144095     1.204437902
 N      -12.291550639    11.950079589     0.795247824
 C      -12.789629788    10.648382540     0.305192548
 C      -12.706145287    12.241544011     2.181050202
 C      -12.187337980     9.419286400     1.008687358
 C      -12.712082685     8.095334738     0.430478290
 N      -12.512521077     7.910062448    -1.020190021
 C      -11.262064202     8.314221521    -1.536498325
 C      -10.089280754     7.891835071    -0.875899899
 C       -8.844154476     8.268434026    -1.353099475
 C       -8.719517135     9.051078314    -2.510397052
 C       -9.883574435     9.450287276    -3.171487374
 C      -11.140177531     9.086923863    -2.703294546
 C      -13.700665864     8.240653425    -1.823232643
 C       -7.383705539     9.426618196    -2.979922446
 C       -7.166329615    10.170094111    -4.072647487
Si       -5.534767007    10.681177457    -4.724169059
 C       -5.355917149    10.007894528    -6.432886144
 C       -6.117150854     8.908840259    -6.843635228
 C       -5.983953930     8.398094679    -8.134257075
 C       -5.082923967     8.967789427    -9.038072448
 C       -4.317572508    10.065569108    -8.621904766
 C       -4.450402928    10.579971942    -7.334638195
 C       -4.909669101     8.467389106   -10.398011714
 C       -5.578950357     7.425745852   -10.920501887
 C       -5.405905381     6.925184158   -12.280284061
 C       -4.507051218     7.496464267   -13.185635834
 C       -4.373654686     6.985820767   -14.476129721
 C       -5.131739771     5.884280035   -14.888255909
 C       -6.032226885     5.309629168   -13.982994207
 C       -6.168974316     5.826668048   -12.696874364
Si       -4.951372958     5.211879498   -16.598231125
 C       -3.179753324     5.391243833   -17.167927982
 C       -5.418252582     3.401904251   -16.633320064
 C       -6.082001722     6.176886372   -17.730700017
 C       -5.485293711    12.549516650    -4.737590754
 C       -4.135180393     9.993113915    -3.700612113
 C       -3.240630557    13.478751797     1.588055913
 C       -3.554118048    13.311706322    -1.438704968
 C       -0.606783045    -0.885015304    -1.530600415
 C       -0.626685409    -0.868353792     1.531328057
 H        1.244018613     2.703453435     0.467589879
 H        0.332817162     4.953750747     0.455462857
 H       -3.578074959     3.410519769    -0.466695544
 H       -2.708652187     1.139381508    -0.465110167
 H       -3.342223202     5.718126124    -0.239702568
 H       -0.515428692     6.795024893     0.424653913
 H       -0.289915266     9.111457619     0.646413676
 H       -1.174305110    11.379712433     0.638163891
 H       -5.125946898     9.782971341    -0.255155276
 H       -4.191880058     7.539266076    -0.266013569
 H       -5.947963166    11.790740014     1.449871179
 H       -6.579173229    13.120114973    -1.304129222
 H       -8.839890266    13.318979234    -1.852484113
 H      -11.247716968    12.999810464    -1.343395180
 H      -10.199750138    11.230188775     2.440873697
 H       -7.813651178    11.520310590     1.927114714
 H      -13.806816299    12.315148531     2.205880415
 H      -12.303303887    13.226107108     2.476416046
 H      -12.389524142    11.498629780     2.927225168
 H      -14.576995420     7.714654820    -1.406283827
 H      -13.562810693     7.858100085    -2.851137643
 H      -13.930731199     9.316503160    -1.872547802
 H      -10.164685866     7.266026449     0.009207179
 H       -7.948823252     7.946853844    -0.819825593
 H       -9.815923103    10.063435387    -4.071923232
 H      -12.019130518     9.429265771    -3.239847987
 H       -6.573248997     9.042680492    -2.347209777
 H       -8.007791239    10.543136053    -4.679905574
 H       -6.836474856     8.419760203    -6.177870960
 H       -6.590496751     7.544575146    -8.431894651
 H       -3.609773906    10.522939870    -9.310480243
 H       -3.827623186    11.437335482    -7.065895473
 H       -4.171497710     9.011328346   -10.994654105
 H       -6.316593671     6.881494807   -10.323178525
 H       -3.901106504     8.350493597   -12.887903261
 H       -3.655799646     7.476844985   -15.139054413
 H       -6.650036840     4.447382521   -14.248174647
 H       -6.876093114     5.367053288   -12.008624702
 H      -13.896392799    10.649952704     0.402983878
 H      -12.559102072    10.609055851    -0.786436598
 H      -11.080811812     9.452683779     0.918369211
 H      -12.401567081     9.453397958     2.091987635
 H      -12.196722779     7.243859300     0.938207472
 H      -13.793169776     7.981342521     0.665168401
 H        2.266955424    -1.029533128    -0.048670254
 H        2.277643295     0.467662542     0.913177853
 H        2.271456757     0.550998556    -0.869156363
 H       -3.032765571     4.938070200   -18.164336304
 H       -2.483471638     4.891886758   -16.469833301
 H       -2.877224292     6.450567657   -17.239032726
 H       -4.819558244     2.819982118   -15.909329522
 H       -6.483302830     3.248668291   -16.386252716
 H       -5.245754358     2.964916650   -17.632998219
 H       -5.830292775     7.252668254   -17.729034045
 H       -6.010720839     5.818176562   -18.772392747
 H       -7.137572312     6.086227040   -17.417035753
 H       -6.236892657    12.964114687    -5.432977086
 H       -5.700210451    12.961448250    -3.734545620
 H       -4.497788515    12.928490688    -5.051880098
 H       -4.059089714     8.895171876    -3.812889199
 H       -3.161413801    10.418086222    -4.001566075
 H       -4.268209802    10.201688281    -2.623402545
 H       -3.390001976    12.972914462     2.558964334
 H       -2.156934967    13.648617528     1.465044633
 H       -3.727210611    14.468938089     1.652806696
 H       -3.863277099    12.695792307    -2.302784986
 H       -4.065666381    14.287350473    -1.519931583
 H       -2.469463985    13.494836292    -1.543121493
 H       -0.279771911    -0.363597591    -2.448840098
 H       -0.217604411    -1.917397087    -1.577922681
 H       -1.708947969    -0.943765769    -1.559016186
 H       -0.280557816    -0.360765070     2.449923840
 H       -1.730722623    -0.886327012     1.561813929
 H       -0.273906585    -1.913718180     1.574608400

