139   

Si        0.000000000     0.000000000     0.000000000
 C        1.869283361     0.000000000     0.000000000
 C       -0.649505522     1.728236760     0.000000000
 C        0.162245588     2.809495207    -0.356613474
 C       -0.343810442     4.109348874    -0.351476904
 C       -1.672073191     4.357213195     0.004381022
 C       -2.485510008     3.272017401     0.357468262
 C       -1.982816524     1.973694749     0.354399851
 C       -2.245581790     5.698911741     0.024422902
 C       -1.577685662     6.822016961    -0.289536355
 C       -2.154415119     8.162503416    -0.268435364
 C       -1.344833164     9.251028353    -0.619473080
 C       -1.852039834    10.548240699    -0.613719179
 C       -3.186441466    10.784831822    -0.263512510
 C       -3.997888951     9.700174190     0.086696114
 C       -3.484691975     8.403938984     0.086657594
Si       -3.876544459    12.495597819    -0.249964487
 C       -5.685374365    12.363859914    -0.516345768
 C       -6.630479860    12.788996843     0.331592399
 C       -8.069051000    12.665754840     0.082828229
 C       -8.965071144    13.149872241     1.048714478
 C      -10.334031894    13.056959029     0.860677896
 C      -10.849245066    12.441386053    -0.298050457
 C       -9.958030482    11.960568692    -1.268207837
 C       -8.586034174    12.093354953    -1.081694468
 N      -12.260442964    12.380476681    -0.426546836
 C      -12.947903042    11.588397612     0.613395626
 C      -12.774246989    12.146604342    -1.784531036
 C      -13.074265230    10.076973811     0.352694094
 C      -11.738702385     9.310073936     0.356025680
 N      -11.157486541     9.049811708     1.682717121
 C      -11.979412611     8.466276315     2.654815687
 C      -12.928866965     7.492966623     2.269707586
 C      -13.750976637     6.904020433     3.215411705
 C      -13.634561126     7.218819346     4.577351896
 C      -12.674481755     8.160037240     4.959469110
 C      -11.852280080     8.773446199     4.023752591
 C      -10.175984858    10.046812884     2.127929537
 C      -14.529681494     6.566262157     5.533948500
 C      -14.509859034     6.788338737     6.854931766
Si      -15.612168475     5.992290574     8.081773658
 C      -16.578038854     7.308602331     8.942544877
 C      -16.712356289     8.580137109     8.372271954
 C      -17.441823001     9.571663298     9.024017003
 C      -18.059878458     9.315227121    10.254792117
 C      -17.927594586     8.042798385    10.818699921
 C      -17.195885804     7.048736965    10.170444687
 C      -18.813303496    10.386437620    10.898783870
 C      -19.449138023    10.273345612    12.077266405
 C      -20.202435712    11.344804046    12.720881475
 C      -20.335070231    12.617085063    12.157676861
 C      -21.064601405    13.611862509    12.807754441
 C      -21.671800522    13.358432911    14.042460283
 C      -21.539703376    12.084538408    14.609065203
 C      -20.817075401    11.090440066    13.953916450
Si      -22.637736134    14.675833801    14.903024755
 C      -21.926566138    16.357072500    14.499218859
 C      -24.409882945    14.581047255    14.318210326
 C      -22.567467380    14.418001486    16.753395181
 C      -16.810463208     4.811760881     7.271207764
 C      -14.544472580     5.074701367     9.310423914
 C       -3.470598036    13.292654856     1.387959745
 C       -3.157645763    13.503879591    -1.647901910
 C       -0.628460876    -0.864954646    -1.532402153
 C       -0.605217716    -0.890188949     1.528510647
 H        1.208990954     2.678717800    -0.644471490
 H        0.310194108     4.933777280    -0.630075184
 H       -3.523465609     3.443041479     0.638032261
 H       -2.665030061     1.167832300     0.639408450
 H       -3.297496221     5.741509370     0.323282463
 H       -0.526247002     6.780502817    -0.588205404
 H       -0.306393508     9.084172439    -0.899384293
 H       -1.173680272    11.358126177    -0.895024981
 H       -5.048847022     9.827213773     0.368462290
 H       -4.134963941     7.576267230     0.365353012
 H       -5.952334975    11.887674983    -1.474353230
 H       -6.395982597    13.268465444     1.291006682
 H       -8.580241986    13.619625904     1.954536837
 H      -11.019730331    13.471994874     1.597190409
 H      -10.327410348    11.489610386    -2.174437954
 H       -7.909955312    11.725975957    -1.855537150
 H      -13.869229468    12.289478551    -1.779869337
 H      -12.554548915    11.147607840    -2.191918066
 H      -12.350468414    12.906293257    -2.465954290
 H       -9.551573224    10.371172193     1.274275859
 H       -9.492565352     9.582665131     2.862698324
 H      -10.629211292    10.945966310     2.576082944
 H      -13.016193603     7.200847394     1.227538381
 H      -14.490573197     6.170077755     2.893783562
 H      -12.562531958     8.423264418     6.012791091
 H      -11.123744744     9.502542704     4.363251428
 H      -15.231909138     5.867091138     5.060728839
 H      -13.790032227     7.492839472     7.302112319
 H      -16.253798656     8.835668075     7.411083615
 H      -17.532385311    10.555648645     8.567657811
 H      -18.398203523     7.817651669    11.773905041
 H      -17.126316406     6.073782609    10.660492187
 H      -18.832738835    11.328977165    10.343573816
 H      -19.430037058     9.330737240    12.632275689
 H      -19.868110479    12.841838330    11.200324786
 H      -21.134521655    14.585979809    12.315772180
 H      -21.991548696    11.828367368    15.571297646
 H      -20.728204969    10.105850129    14.409532955
 H      -12.444546859    11.755995654     1.591716555
 H      -13.970785566    12.025740589     0.714648105
 H      -13.751325868     9.646935281     1.121268971
 H      -13.586814286     9.901305892    -0.611637801
 H      -11.882045850     8.319838934    -0.140838974
 H      -10.986736985     9.848117370    -0.265286042
 H        2.267345057    -1.028336650     0.067209631
 H        2.271016906     0.567043730     0.859095714
 H        2.278128852     0.451404797    -0.921063284
 H      -22.449203354    17.155565329    15.055365425
 H      -22.014635134    16.592049202    13.424134238
 H      -20.855672387    16.412634924    14.766512878
 H      -24.481674005    14.732922102    13.226173108
 H      -24.854941225    13.594924322    14.542442564
 H      -25.036435630    15.349069483    14.804651847
 H      -21.523108957    14.388451325    17.113578139
 H      -23.080336679    15.235993308    17.290026081
 H      -23.051282078    13.472385465    17.054232137
 H      -17.451347518     5.331666183     6.535944016
 H      -16.280775901     3.999822453     6.741986233
 H      -17.479174197     4.344134089     8.015823487
 H      -13.877457250     5.764957359     9.858079488
 H      -15.153448853     4.536866731    10.057441407
 H      -13.905135224     4.329810730     8.802513769
 H       -3.886838882    12.713257435     2.232235011
 H       -2.378158857    13.356266681     1.542646585
 H       -3.875909183    14.318247690     1.450140951
 H       -3.308838044    13.006664408    -2.623216793
 H       -3.634054766    14.499623972    -1.706711781
 H       -2.072625114    13.662586987    -1.519211263
 H       -0.282253672    -0.356885155    -2.450626337
 H       -0.277801197    -1.910971707    -1.577126837
 H       -1.732675704    -0.880595626    -1.562138907
 H       -0.295900862    -0.359764957     2.447586483
 H       -1.706162995    -0.970242193     1.546917919
 H       -0.197391066    -1.915080099     1.582943680

