139   

Si        0.000000000     0.000000000     0.000000000
 C        1.869648692     0.000000000     0.000000000
 C       -0.626602630     1.737017830     0.000000000
 C        0.092801427     2.749969878    -0.643759838
 C       -0.377250190     4.062504086    -0.645792357
 C       -1.581712863     4.390910691    -0.016929007
 C       -2.303785532     3.374894936     0.621857864
 C       -1.833020875     2.063954403     0.631308712
 C       -2.110431514     5.750941238     0.005087798
 C       -1.506908762     6.807558858    -0.565158961
 C       -2.022482142     8.171892648    -0.551653371
 C       -3.224491231     8.518950571     0.071892325
 C       -3.678660994     9.837330997     0.059441519
 C       -2.929977976    10.840776176    -0.563934581
 C       -1.720966830    10.497027831    -1.182182549
 C       -1.273937620     9.178710741    -1.175216358
Si       -3.515019833    12.589642840    -0.590226531
 C       -2.871131326    13.481649884     0.872079751
 C       -2.091394106    12.952400214     1.823907239
 C       -1.596045092    13.702910341     2.981582842
 C       -0.784323175    13.042384252     3.916699224
 C       -0.292113237    13.710193893     5.027375141
 C       -0.578732654    15.073736731     5.209408659
 C       -1.383483994    15.741429572     4.279670590
 C       -1.893467214    15.052379202     3.183494853
 N       -0.033477342    15.690452759     6.381579982
 C        1.408423731    15.984041112     6.226903797
 C       -0.801185840    16.842566068     6.886493517
 C        1.729674053    17.097057744     5.208423317
 C        3.173619709    16.998407210     4.680105867
 N        3.310523176    16.338078324     3.364731906
 C        2.949813926    14.968695141     3.330749262
 C        3.525551550    14.104506791     4.284843221
 C        3.202655776    12.757786207     4.290091174
 C        2.355025308    12.213642300     3.313733761
 C        1.818984012    13.065716313     2.345422753
 C        2.114196715    14.424541060     2.342490050
 C        2.795903713    17.170931665     2.263665242
 C        2.050654149    10.783486964     3.371875112
 C        1.259216353    10.137726515     2.505822919
Si        0.881593530     8.345866290     2.583755025
 C        1.742749343     7.565459748     4.017024744
 C        2.612484528     6.484235019     3.853268983
 C        3.250185164     5.913737308     4.955355687
 C        3.031620695     6.410020910     6.242866250
 C        2.156183069     7.492618683     6.405691216
 C        1.517111952     8.062541963     5.308721399
 C        3.676382246     5.845243260     7.423802873
 C        4.533625807     4.810488669     7.406127092
 C        5.178515587     4.245549817     8.587025160
 C        4.958827312     4.740327966     9.875859931
 C        5.596517715     4.169722551    10.976599260
 C        6.463957453     3.083620723    10.813633342
 C        6.684479768     2.585511965     9.523909529
 C        6.051266081     3.161785847     8.425160370
Si        7.303402382     2.335320066    12.277814251
 C        6.139718598     2.337876340    13.741072679
 C        7.807445548     0.573504142    11.907465769
 C        8.819659895     3.354754351    12.670125381
 C       -0.957879143     8.140148473     2.821181483
 C        1.428443664     7.560552123     0.980537360
 C       -2.900552079    13.448504111    -2.132489942
 C       -5.382228629    12.642807706    -0.551464377
 C       -0.635229107    -0.854295807    -1.535260256
 C       -0.604729578    -0.900349414     1.522221212
 H        1.039023420     2.554264724    -1.155739182
 H        0.205695121     4.832787801    -1.147572660
 H       -3.243566759     3.608983118     1.118854637
 H       -2.437692479     1.314269755     1.149143876
 H       -3.059936939     5.866506970     0.535015198
 H       -0.559421641     6.682776845    -1.098955367
 H       -3.822689091     7.755795069     0.566548582
 H       -4.630371927    10.047033545     0.556241486
 H       -1.092487375    11.239678410    -1.682887373
 H       -0.334152250     8.931033590    -1.665490296
 H       -3.187212478    14.536136316     0.916106587
 H       -1.760551711    11.903920624     1.810252820
 H       -0.537924714    11.986740514     3.775254255
 H        0.324291089    13.188561598     5.758918435
 H       -1.616380456    16.794099661     4.405785686
 H       -2.525053323    15.585072938     2.472918982
 H       -0.417636045    17.102620076     7.888433844
 H       -1.858388840    16.547441879     7.006252670
 H       -0.757297409    17.741102810     6.253963056
 H        3.234555355    18.180580806     2.336597096
 H        1.698698511    17.268635592     2.246260134
 H        3.130763149    16.743991475     1.300955678
 H        4.226215825    14.496350184     5.017533627
 H        3.633916640    12.108676188     5.053300078
 H        1.152550702    12.669755414     1.576793057
 H        1.660994190    15.055789474     1.584436355
 H        2.550423757    10.274344847     4.209476691
 H        0.776754789    10.661464708     1.665994444
 H        2.820928440     6.050776810     2.871001197
 H        3.922859766     5.072150455     4.801067711
 H        1.970447495     7.891597941     7.400986077
 H        0.838410956     8.900990317     5.497840472
 H        3.410979554     6.332203287     8.366807121
 H        4.798721965     4.322949678     6.463316708
 H        4.284465163     5.580799736    10.030272995
 H        5.386561607     4.602496267    11.958733030
 H        7.350215846     1.738816159     9.335582029
 H        6.237562933     2.761487841     7.430248794
 H        1.807462704    16.250034538     7.229492139
 H        1.910874600    15.033353795     5.928444906
 H        1.015948836    17.040715902     4.362410479
 H        1.564405839    18.086338603     5.669289906
 H        3.612940461    18.018018277     4.586866827
 H        3.822882672    16.463589163     5.408786059
 H        2.268897202    -1.027056028     0.076710751
 H        2.268768296     0.575897475     0.854798759
 H        2.279983126     0.445107080    -0.923063446
 H        6.593385378     1.835194892    14.613577854
 H        5.199379689     1.807781355    13.503939772
 H        5.873836252     3.363392747    14.051485302
 H        6.939311930    -0.033603982    11.593236147
 H        8.560280904     0.523794909    11.101409590
 H        8.245861344     0.088657392    12.797912131
 H        8.552639795     4.402268123    12.897994035
 H        9.362439878     2.950398309    13.542396051
 H        9.522473345     3.372956772    11.817659172
 H       -1.296950592     8.569256446     3.780111933
 H       -1.524488589     8.639400300     2.012129966
 H       -1.241088659     7.071922474     2.812597875
 H        2.523788317     7.620018328     0.853727996
 H        1.137232128     6.495073150     0.939388381
 H        0.966217868     8.068430613     0.115025550
 H       -1.800181289    13.545150337    -2.136590255
 H       -3.192124221    12.892149194    -3.041284554
 H       -3.319704579    14.466691913    -2.218381381
 H       -5.782085965    12.239194485     0.396040966
 H       -5.757544778    13.676639290    -0.651998646
 H       -5.815168610    12.049966784    -1.377124914
 H       -0.290312227    -0.343735503    -2.452328483
 H       -0.288871276    -1.901612947    -1.585481462
 H       -1.739773236    -0.865972854    -1.561532044
 H       -0.312432732    -0.366254283     2.444905321
 H       -1.704072881    -1.001960342     1.529364775
 H       -0.179370941    -1.918196127     1.579712714

