139   

Si        0.000000000     0.000000000     0.000000000
 C        1.870137043     0.000000000     0.000000000
 C       -0.630442812     1.735278262     0.000000000
 C        0.164849678     2.787143990    -0.465601979
 C       -0.316260135     4.096345728    -0.463441095
 C       -1.601490762     4.384752966     0.002499037
 C       -2.397971318     3.329334621     0.466983401
 C       -1.920875253     2.021220241     0.465040003
 C       -2.143867089     5.738795164     0.022412510
 C       -1.482935814     6.831947261    -0.395223994
 C       -2.025635020     8.186310785    -0.375229154
 C       -1.228491680     9.239994709    -0.840970646
 C       -1.705403084    10.548847262    -0.840416858
 C       -3.004447390    10.828898201    -0.401008829
 C       -3.804549012     9.777477887     0.059384908
 C       -3.315714024     8.472241530     0.080059957
Si       -3.656180498    12.557741097    -0.392281219
 C       -4.971376530    12.600210920     0.878882039
 C       -6.263442370    12.902353217     0.698862816
 C       -7.249799275    12.910707714     1.781113663
 C       -8.581735291    13.239924648     1.498144953
 C       -9.546168876    13.259561025     2.493422683
 C       -9.224549125    12.869962267     3.812061307
 C       -7.886373564    12.522332200     4.093880965
 C       -6.924042620    12.565983857     3.096338871
 N      -10.188451091    12.885095857     4.826146050
 C      -11.608792755    12.722585521     4.475652168
 C       -9.827653294    12.243737353     6.100302088
 C      -12.509007610    13.611135699     5.356160986
 C      -12.405730028    15.116778281     5.030444717
 N      -11.481510799    15.915818783     5.854797847
 C      -10.143757435    16.012337630     5.395317199
 C       -9.939523317    16.543994900     4.105780984
 C       -8.656509945    16.664458096     3.599302094
 C       -7.539552597    16.292691692     4.363433836
 C       -7.746388864    15.800395956     5.653699472
 C       -9.028707637    15.677647610     6.178646497
 C      -11.655282583    15.728343204     7.302700311
 C       -6.208446056    16.443453953     3.772782667
 C       -5.063058994    16.127296361     4.391847487
Si       -3.402067286    16.319457046     3.644614205
 C       -2.571857298    14.674980522     3.569087395
 C       -3.313763202    13.503079560     3.742114743
 C       -2.694060545    12.254923183     3.686563547
 C       -1.326923586    12.151687131     3.417838279
 C       -0.585231485    13.328145884     3.239120019
 C       -1.195930909    14.576570121     3.327034437
 C       -0.633942407    10.870341669     3.349408686
 C       -1.221209128     9.671323998     3.501990970
 C       -0.516830932     8.395306055     3.431342993
 C        0.858531405     8.311829278     3.193705666
 C        1.497297841     7.075036786     3.132935172
 C        0.772025005     5.890527180     3.307647719
 C       -0.605446928     5.970857181     3.540187554
 C       -1.242195131     7.209213096     3.596496564
Si        1.645813360     4.267605084     3.221703386
 C        2.788810777     4.140223522     4.698417638
 C        0.420262452     2.862136504     3.276688351
 C        2.652433914     4.183404981     1.649262490
 C       -3.523791733    16.992114239     1.905485544
 C       -2.407756631    17.482374950     4.717745654
 C       -2.308065433    13.769744120     0.031600312
 C       -4.333563496    12.948401708    -2.090174932
 C       -0.635384711    -0.865280613    -1.528343527
 C       -0.602914888    -0.882862510     1.534396519
 H        1.178236382     2.624144202    -0.843044986
 H        0.321349647     4.898704446    -0.831972458
 H       -3.402486118     3.532043789     0.833127696
 H       -2.588370334     1.239878702     0.837490485
 H       -3.162147511     5.818831227     0.412812201
 H       -0.460514203     6.754226682    -0.776568269
 H       -0.219344130     9.038538056    -1.194149453
 H       -1.031489169    11.333378554    -1.193760545
 H       -4.825805581     9.940457850     0.419854819
 H       -3.952339436     7.672723173     0.453346406
 H       -4.588848583    12.335531861     1.879948084
 H       -6.681698178    13.172700078    -0.277552578
 H       -8.865960464    13.511104420     0.481095065
 H      -10.553510830    13.580601103     2.246280190
 H       -7.584822855    12.235518778     5.095407752
 H       -5.894705983    12.303655374     3.349852494
 H      -10.679960713    12.253003149     6.797930000
 H       -9.015410855    12.825260512     6.577541746
 H       -9.497743379    11.198169917     5.976265054
 H      -12.726785661    15.805952853     7.552335151
 H      -11.135660537    16.548413012     7.831733739
 H      -11.273601637    14.769270300     7.687482742
 H      -10.793121667    16.854578785     3.509168829
 H       -8.515033385    17.055866450     2.591711118
 H       -6.893713671    15.506036546     6.266334399
 H       -9.156106197    15.286358930     7.181880554
 H       -6.239539700    16.835493342     2.746449417
 H       -5.057881771    15.729611639     5.417765573
 H       -4.391206107    13.530639629     3.944859768
 H       -3.287261183    11.355627384     3.844246948
 H        0.481944569    13.267441022     3.037017940
 H       -0.565411676    15.459488296     3.196572530
 H        0.439889522    10.942137913     3.154740661
 H       -2.297189582     9.593422248     3.682889879
 H        1.443412020     9.218485713     3.051463638
 H        2.573886389     7.073657345     2.943112167
 H       -1.223353215     5.078463765     3.671653701
 H       -2.315942426     7.251078968     3.767804852
 H      -11.780207825    12.978530621     3.405786366
 H      -11.917481533    11.656711436     4.587698323
 H      -13.558665342    13.287091248     5.214981723
 H      -12.289338118    13.434737391     6.424420461
 H      -12.136514503    15.247711885     3.958126654
 H      -13.411879177    15.584368844     5.159664833
 H        2.269323579    -1.025260984     0.095223620
 H        2.269267043     0.592053184     0.843862005
 H        2.278834497     0.427374072    -0.932288056
 H        3.343313725     3.186100857     4.696101356
 H        2.223518571     4.196287544     5.645902078
 H        3.529272561     4.958877628     4.708311518
 H       -0.167960186     2.867298286     4.210260013
 H       -0.292926551     2.926210143     2.430501807
 H        0.927198347     1.883990894     3.208593237
 H        3.449206201     4.946597284     1.635024173
 H        3.130431802     3.195223951     1.533798252
 H        2.013425848     4.351760977     0.763145116
 H       -4.141516140    16.331538214     1.267633081
 H       -3.983401292    17.995965266     1.893249229
 H       -2.529278946    17.074323819     1.433916042
 H       -2.263553770    17.069347588     5.732185154
 H       -1.408070378    17.674864941     4.292100804
 H       -2.917262504    18.456706543     4.826890974
 H       -1.854361667    13.530711283     1.014407004
 H       -1.499821506    13.762143579    -0.718756317
 H       -2.698442756    14.801203722     0.094301669
 H       -5.130799324    12.239639081    -2.377290305
 H       -4.757841375    13.966775852    -2.128016878
 H       -3.544828719    12.885394956    -2.860418996
 H       -0.292903717    -0.358730956    -2.448814997
 H       -0.286742476    -1.911858379    -1.573902943
 H       -1.739786693    -0.879486344    -1.553713593
 H       -0.295949952    -0.346158734     2.450522769
 H       -1.703337247    -0.967579880     1.551919561
 H       -0.191966935    -1.906025977     1.594690762

