139   

Si        0.000000000     0.000000000     0.000000000
 C        1.869380513     0.000000000     0.000000000
 C       -0.647769885     1.728545096     0.000000000
 C        0.134217769     2.794120935    -0.457075836
 C       -0.366700266     4.095837289    -0.452006519
 C       -1.661120348     4.361551216     0.002632443
 C       -2.445103110     3.291950480     0.455448585
 C       -1.947087858     1.991721487     0.453296719
 C       -2.228071219     5.705841061     0.026758691
 C       -1.585946359     6.815624143    -0.375729379
 C       -2.155655099     8.158922610    -0.350412508
 C       -1.375003763     9.231749393    -0.800340911
 C       -1.877233326    10.530779139    -0.794389675
 C       -3.170289312    10.790109245    -0.323917644
 C       -3.950758456     9.720039711     0.127448056
 C       -3.449864424     8.419112858     0.109030399
Si       -3.844709466    12.509389210    -0.312219363
 C       -4.709912609    12.818388727    -1.894706836
 C       -4.818443721    11.920251123    -2.882342390
 C       -5.508772507    12.161634806    -4.149325432
 C       -5.550643806    11.136045207    -5.102335665
 C       -6.191168003    11.310883342    -6.319292328
 C       -6.895971462    12.502741703    -6.591588936
 C       -6.865742979    13.529810410    -5.625752914
 C       -6.159453987    13.363294173    -4.443267338
 N       -7.549075226    12.691873519    -7.820854664
 C       -7.883717131    11.501490455    -8.622186544
 C       -8.577512487    13.745043852    -7.862736017
 C       -8.749128797    10.441602239    -7.916413554
 C      -10.256161779    10.759316131    -7.946963625
 N      -10.966743283    10.497017866    -6.674708317
 C      -10.607767830    11.440875837    -5.656057516
 C      -11.272811027    12.677138383    -5.701240061
 C      -10.987449215    13.649189920    -4.754638254
 C      -10.035500813    13.418092755    -3.750483521
 C       -9.387317084    12.180811794    -3.707170552
 C       -9.677147068    11.191167335    -4.641499187
 C      -10.882503049     9.087571737    -6.250797200
 C       -9.776058929    14.483084664    -2.777504056
 C       -8.894733580    14.388059203    -1.774114335
Si       -8.555868818    15.707738846    -0.547504246
 C       -6.768063838    16.130726686    -0.708106781
 C       -6.204914132    16.222223551    -1.986314306
 C       -4.857387874    16.539785877    -2.144340702
 C       -4.049386791    16.790245584    -1.031362536
 C       -4.618365644    16.706446990     0.246342177
 C       -5.962976294    16.380090215     0.408175491
 C       -2.634233788    17.126090200    -1.150148487
 C       -1.973333024    17.236726557    -2.314983467
 C       -0.558776571    17.572272136    -2.437499657
 C        0.257194447    17.814942304    -1.329055175
 C        1.604955553    18.132697262    -1.492508641
 C        2.165857099    18.221453885    -2.771205838
 C        1.350197149    17.977878063    -3.883250709
 C        0.006017472    17.653501051    -3.716944085
Si        3.950791280    18.642267502    -2.987998058
 C        4.519422462    19.753646865    -1.596411175
 C        4.933269648    17.053079175    -2.970939918
 C        4.207691915    19.527946627    -4.614140916
 C       -9.569463584    17.241616508    -0.862498973
 C       -8.926759143    15.025889920     1.150788956
 C       -5.060859454    12.744978227     1.086316805
 C       -2.434253670    13.718671578    -0.127888717
 C       -0.629392019    -0.862266212    -1.533757196
 C       -0.602671808    -0.896892933     1.525932465
 H        1.153643383     2.649360264    -0.825141962
 H        0.264140586     4.908084997    -0.808961190
 H       -3.456205010     3.476637822     0.813793154
 H       -2.605511480     1.198952171     0.819005334
 H       -3.251910445     5.762859751     0.408108209
 H       -0.562041171     6.759759464    -0.756881793
 H       -0.364800702     9.050716437    -1.162395342
 H       -1.224641857    11.327263599    -1.164879408
 H       -4.967919763     9.862277951     0.503631925
 H       -4.078299935     7.603603633     0.461395060
 H       -5.141743548    13.828933583    -1.979834632
 H       -4.388326815    10.910388429    -2.813761024
 H       -5.050845447    10.188080095    -4.897606447
 H       -6.144576960    10.515772626    -7.056222044
 H       -7.388864578    14.465339877    -5.795836603
 H       -6.132293226    14.182739541    -3.722232370
 H       -9.085146184    13.752410328    -8.839933506
 H       -8.088298311    14.730020448    -7.749014676
 H       -9.341652138    13.636319114    -7.071686870
 H      -11.371655196     8.463898342    -7.018667473
 H      -11.449907607     8.959519140    -5.312207393
 H       -9.860911516     8.709279194    -6.096120582
 H      -12.019073853    12.853664252    -6.473796481
 H      -11.513795033    14.602304594    -4.792742764
 H       -8.635610602    11.981442614    -2.940215949
 H       -9.160370170    10.236329462    -4.586354151
 H      -10.384524120    15.380331585    -2.951007029
 H       -8.294038667    13.474714027    -1.623287317
 H       -6.795248053    16.051953577    -2.893883090
 H       -4.437196074    16.592136142    -3.148058198
 H       -4.006090866    16.898800730     1.125339219
 H       -6.352578678    16.326864571     1.427909482
 H       -2.121026229    17.296361934    -0.199523961
 H       -2.487496180    17.067360608    -3.266564808
 H       -0.155550118    17.756504498    -0.323472065
 H        2.192607447    18.310670604    -0.587605540
 H        1.733000565    18.032584180    -4.906211289
 H       -0.610665365    17.463785072    -4.594092121
 H       -8.373523294    11.834929326    -9.563902673
 H       -6.916590431    11.040382527    -8.939996847
 H       -8.565054509     9.453893305    -8.376198587
 H       -8.413604355    10.339264692    -6.862410418
 H      -10.429441599    11.825060215    -8.214206884
 H      -10.761994800    10.158677506    -8.734869782
 H        2.267576726    -1.028383480     0.063717648
 H        2.270197161     0.564653606     0.861219684
 H        2.278859322     0.455302470    -0.918773069
 H        5.568330007    20.068668837    -1.740227346
 H        4.458474512    19.247933310    -0.616948009
 H        3.902919116    20.669004544    -1.538625959
 H        4.799277803    16.507378334    -2.019608932
 H        4.617135782    16.376156088    -3.785004600
 H        6.013196920    17.245673300    -3.096778419
 H        3.565737522    20.424517676    -4.687015447
 H        5.255170563    19.860144741    -4.726549801
 H        3.973708934    18.878871963    -5.476017918
 H       -9.371614354    17.661105249    -1.865461913
 H      -10.651854292    17.032250607    -0.793335939
 H       -9.338248559    18.032852461    -0.126426568
 H       -8.278885945    14.162841363     1.390281449
 H       -8.778587550    15.786539861     1.936824389
 H       -9.974483775    14.680191211     1.220235164
 H       -5.960319077    12.118336918     0.957054997
 H       -4.607920804    12.492129735     2.060367623
 H       -5.396405341    13.798340301     1.134846529
 H       -1.782583525    13.723769793    -1.020572796
 H       -2.810161276    14.750330709     0.002567411
 H       -1.807696012    13.476274177     0.747672197
 H       -0.283431711    -0.352926773    -2.451291613
 H       -0.279565288    -1.908418266    -1.580139389
 H       -1.733648993    -0.876887396    -1.562764581
 H       -0.306995452    -0.360959408     2.446225734
 H       -1.702291508    -0.993691404     1.536862905
 H       -0.180282064    -1.915640287     1.584203952

