139   

Si        0.000000000     0.000000000     0.000000000
 C        1.869045801     0.000000000     0.000000000
 C       -0.660422966     1.722447482     0.000000000
 C        0.175456559     2.833958313    -0.139159719
 C       -0.354742255     4.124642259    -0.135264836
 C       -1.727952140     4.331577378     0.015930162
 C       -2.564992442     3.215714580     0.152654667
 C       -2.040286289     1.926937929     0.138287618
 C       -2.330574800     5.659939444     0.026594840
 C       -1.651643032     6.811973955    -0.104599660
 C       -2.266860899     8.134807080    -0.092214016
 C       -1.449218543     9.262587490    -0.238530222
 C       -1.994785681    10.544276699    -0.232434289
 C       -3.373077143    10.729820397    -0.071949768
 C       -4.191108788     9.603956516     0.074447086
 C       -3.643592253     8.322366165     0.060680309
Si       -4.111287199    12.419499057    -0.061582305
 C       -4.793344374    12.872930788    -1.696944323
 C       -4.789275717    12.118196095    -2.803938045
 C       -5.356414668    12.549681227    -4.082903011
 C       -5.305280320    11.689361144    -5.187375993
 C       -5.831566779    12.061913847    -6.415572607
 C       -6.395934388    13.340956072    -6.596910408
 C       -6.450929157    14.205759519    -5.482666469
 C       -5.961602444    13.799635724    -4.250592142
 N       -6.941026758    13.764314994    -7.820579285
 C       -6.715794603    12.937121599    -9.020709240
 C       -6.863906021    15.213232100    -8.084238199
 C       -7.854736207    13.161522576   -10.038451148
 C       -8.129279148    11.893482989   -10.871981338
 N       -9.209045507    11.024670224   -10.349403560
 C       -8.979910426    10.611290873    -9.000775042
 C       -7.921701976     9.709957121    -8.783050975
 C       -7.643736396     9.267555218    -7.499341197
 C       -8.432629819     9.672955211    -6.411860301
 C       -9.494213388    10.551047143    -6.639577452
 C       -9.770740183    11.019879626    -7.919835360
 C      -10.549960162    11.578764198   -10.611540871
 C       -8.092512462     9.174233091    -5.078157279
 C       -8.761025832     9.482262797    -3.959032032
Si       -8.304374855     8.837131444    -2.304509306
 C       -6.828269352     7.752467230    -2.524647706
 C       -6.888242687     6.362232789    -2.390454029
 C       -5.743477409     5.586666805    -2.566908754
 C       -4.521792254     6.179995439    -2.907502171
 C       -4.466763086     7.570190745    -3.049859717
 C       -5.604875095     8.348371105    -2.856549461
 C       -3.348312083     5.331581306    -3.082661043
 C       -2.123541921     5.790079750    -3.391553149
 C       -0.943415120     4.952153156    -3.569138731
 C       -0.977239747     3.562495690    -3.431434862
 C        0.177459856     2.800898571    -3.610660854
 C        1.394927014     3.416726708    -3.914933026
 C        1.433902291     4.811731420    -4.042364403
 C        0.278931041     5.568761165    -3.868488601
Si        2.936168652     2.432450444    -4.156778366
 C        2.534253058     0.615112079    -4.333662801
 C        3.816002044     3.018382872    -5.697898418
 C        4.024997048     2.683937133    -2.657011102
 C       -7.878307963    10.279816574    -1.200381967
 C       -9.741536829     7.885387094    -1.587437646
 C       -5.504446928    12.474686302     1.186305428
 C       -2.815675055    13.685057259     0.403834451
 C       -0.613630037    -0.864266630    -1.541404482
 C       -0.615554910    -0.889418437     1.524125148
 H        1.257442396     2.735800599    -0.262512586
 H        0.316069199     4.973481314    -0.257735352
 H       -3.637834832     3.357043157     0.269165112
 H       -2.742397920     1.095706379     0.243379295
 H       -3.419054776     5.666798841     0.145193176
 H       -0.565762073     6.808968153    -0.232130357
 H       -0.375152174     9.138601447    -0.359889363
 H       -1.307514134    11.385284454    -0.355121933
 H       -5.275478330     9.683890681     0.198250826
 H       -4.304815882     7.462706630     0.163999153
 H       -5.240153724    13.880973243    -1.703637913
 H       -4.343094471    11.114539089    -2.835731731
 H       -4.854426124    10.700879338    -5.082820969
 H       -5.798257966    11.349537462    -7.236229953
 H       -6.905483543    15.187128201    -5.571453847
 H       -6.041883956    14.481987329    -3.403416307
 H       -7.045658293    15.437612977    -9.146068834
 H       -5.887195633    15.646511194    -7.809951675
 H       -7.655237597    15.723697301    -7.504756494
 H      -10.689328582    11.656921593   -11.703542158
 H      -10.733077651    12.568386642   -10.165736121
 H      -11.313935422    10.874599774   -10.237676025
 H       -7.332867710     9.359365485    -9.627594889
 H       -6.812572340     8.580388492    -7.337039089
 H      -10.110295810    10.890036683    -5.806424107
 H      -10.585537562    11.723274779    -8.062358234
 H       -7.217560966     8.506120960    -5.082461884
 H       -9.630622180    10.154584172    -3.971941006
 H       -7.816806988     5.844767389    -2.138777529
 H       -5.804809166     4.507238188    -2.446755428
 H       -3.526009695     8.057003038    -3.303193214
 H       -5.500369353     9.433689659    -2.971541821
 H       -3.524616255     4.262067375    -2.939288392
 H       -1.947237610     6.862269082    -3.524156958
 H       -1.909716190     3.060040284    -3.178004064
 H        0.085562371     1.717289824    -3.498862830
 H        2.357331625     5.347204070    -4.277243596
 H        0.326929685     6.651389196    -3.968822803
 H       -5.729692343    13.146770012    -9.486543996
 H       -6.711829669    11.861655628    -8.719272807
 H       -8.774617329    13.461929602    -9.494716862
 H       -7.611618820    14.004337681   -10.707114431
 H       -8.395280241    12.174936280   -11.914738649
 H       -7.210676658    11.269777457   -10.953998292
 H        2.266945028    -1.029472161     0.037486641
 H        2.271592245     0.542028447     0.874387738
 H        2.276860941     0.478290806    -0.908138286
 H        3.445155747     0.022807112    -4.530667157
 H        1.837136821     0.438448385    -5.172268750
 H        2.068207701     0.208191885    -3.418493409
 H        3.170915093     2.914938264    -6.589316973
 H        4.107818384     4.080459816    -5.623849398
 H        4.734325335     2.434068041    -5.883071275
 H        3.514862985     2.360034198    -1.731769063
 H        4.964031005     2.110181264    -2.740601682
 H        4.293236397     3.747708248    -2.529624367
 H       -7.093503144    10.913293969    -1.660465420
 H       -8.755520011    10.927509580    -1.027238520
 H       -7.510635567     9.942173416    -0.216071323
 H      -10.059605527     7.067023806    -2.258119842
 H       -9.481867535     7.437824161    -0.611948705
 H      -10.618687530     8.537696994    -1.429805672
 H       -6.345301094    11.823641624     0.886152007
 H       -5.159555111    12.139306824     2.180672368
 H       -5.902815201    13.497852470     1.299032726
 H       -2.027023153    13.760403848    -0.365772292
 H       -3.258696808    14.689842596     0.519104899
 H       -2.328472778    13.424465907     1.360249800
 H       -0.232663197    -0.375402724    -2.456099806
 H       -0.288141768    -1.918623479    -1.566217827
 H       -1.716513064    -0.853848014    -1.596662736
 H       -0.284571201    -0.376798589     2.445760409
 H       -1.718215845    -0.935706838     1.552101368
 H       -0.237810607    -1.925826041     1.566433474

