139   

Si        0.000000000     0.000000000     0.000000000
 C        1.869049144     0.000000000     0.000000000
 C       -0.657333882     1.724807518     0.000000000
 C        0.171936051     2.824281260    -0.240444894
 C       -0.346846652     4.119281811    -0.235581106
 C       -1.704129387     4.344164001     0.007781670
 C       -2.534549138     3.240480185     0.246024332
 C       -2.020087597     1.947018599     0.240748889
 C       -2.292243340     5.679494361     0.022973662
 C       -1.612119953     6.818808029    -0.190260092
 C       -2.204038952     8.152767199    -0.174239906
 C       -1.378770619     9.259914700    -0.412906476
 C       -1.899565561    10.551520338    -0.407410048
 C       -3.262776113    10.764815072    -0.169065718
 C       -4.089044443     9.661713690     0.069363932
 C       -3.563018913     8.370378923     0.069577334
Si       -3.961398533    12.473087994    -0.159970424
 C       -5.767574140    12.354852635    -0.439684123
 C       -6.714896511    12.785443082     0.404018326
 C       -8.152250980    12.676410089     0.151381793
 C       -9.050160455    13.164599250     1.112038806
 C      -10.419262643    13.085524513     0.921222051
 C      -10.944478294    12.548058767    -0.275751767
 C      -10.043310447    12.057279037    -1.241212708
 C       -8.674705547    12.105197338    -1.012403640
 N      -12.331327279    12.475939707    -0.451357258
 C      -13.157551308    13.552790454     0.116286318
 C      -12.832637979    11.920494520    -1.714413446
 C      -12.737446547    14.983106780    -0.269746079
 C      -13.156748845    15.410739307    -1.687521225
 N      -14.606945268    15.555476341    -1.924798602
 C      -15.279114565    14.365330194    -2.299442526
 C      -14.879115489    13.748054808    -3.502357854
 C      -15.495792757    12.582402886    -3.925416527
 C      -16.544764566    12.011370523    -3.188168836
 C      -16.956237101    12.643641112    -2.012512391
 C      -16.345748953    13.813910591    -1.574095160
 C      -15.287954225    16.398185843    -0.930416261
 C      -17.162286713    10.777341582    -3.680721657
 C      -18.167572517    10.144143384    -3.062872263
Si      -18.968746266     8.600805063    -3.642374815
 C      -20.758198516     8.949192701    -3.923990168
 C      -21.194564175    10.255429218    -4.176358301
 C      -22.545649450    10.518258966    -4.388953625
 C      -23.490301740     9.483985278    -4.362347010
 C      -23.049846107     8.180538463    -4.114639658
 C      -21.698485447     7.913905031    -3.898340537
 C      -24.894480955     9.809326226    -4.590804693
 C      -25.897175417     8.914748347    -4.588812146
 C      -27.301313274     9.240189302    -4.817279159
 C      -27.743106918    10.542802740    -5.065036658
 C      -29.095376353    10.808531166    -5.278075815
 C      -30.038835625     9.776299650    -5.239453515
 C      -29.598660383     8.470197624    -4.990550325
 C      -28.246610698     8.206613454    -4.785672016
Si      -31.830108401    10.124842691    -5.521123239
 C      -32.238926440    11.864994620    -4.973829401
 C      -32.185815970     9.935588389    -7.345639180
 C      -32.875829962     8.921937540    -4.544065729
 C      -18.222951346     7.992146642    -5.241573159
 C      -18.761178435     7.309439249    -2.308858868
 C       -3.564966347    13.268021812     1.482412067
 C       -3.221818026    13.477585796    -1.551391004
 C       -0.625003692    -0.869977320    -1.531260708
 C       -0.606782620    -0.885591147     1.530626517
 H        1.241741859     2.711552263    -0.436154898
 H        0.320867473     4.958195740    -0.423881769
 H       -3.595258542     3.393504680     0.437213826
 H       -2.716793020     1.126063055     0.432159113
 H       -3.366985044     5.702996722     0.227359951
 H       -0.537758845     6.797016516    -0.394658221
 H       -0.317758885     9.111919493    -0.604251295
 H       -1.208268652    11.376664438    -0.598169516
 H       -5.161956441     9.770731293     0.262156216
 H       -4.225888705     7.528148373     0.260460287
 H       -6.032794126    11.884854740    -1.400450331
 H       -6.479904858    13.259617930     1.366396394
 H       -8.666489785    13.603613281     2.033687697
 H      -11.089233113    13.436234468     1.700442727
 H      -10.404787254    11.634130118    -2.172692133
 H       -7.998964377    11.703318044    -1.769466599
 H      -13.936504410    11.854098617    -1.686959233
 H      -12.456509625    10.887724506    -1.833882394
 H      -12.550917288    12.510958613    -2.601296767
 H      -14.750005799    17.358833053    -0.847616097
 H      -15.361030550    15.951279577     0.073379416
 H      -16.307471417    16.627116999    -1.290091890
 H      -14.091582702    14.201213982    -4.101592735
 H      -15.171471320    12.113290852    -4.854931666
 H      -17.773136609    12.221886260    -1.424498638
 H      -16.694491460    14.282912837    -0.658771336
 H      -16.719327538    10.416158847    -4.618140343
 H      -18.591442504    10.531454540    -2.121656029
 H      -20.501213205    11.102405946    -4.211653890
 H      -22.867728729    11.540486717    -4.579833076
 H      -23.763252142     7.358879515    -4.088598151
 H      -21.414107232     6.875443693    -3.707825945
 H      -25.094345401    10.869639587    -4.772181373
 H      -25.697407643     7.854417204    -4.407813964
 H      -27.030019389    11.364868650    -5.095320763
 H      -29.379274733    11.847155336    -5.469275219
 H      -30.289689569     7.623805332    -4.948141782
 H      -27.924236362     7.184321864    -4.596165168
 H      -14.220656983    13.376041267    -0.167284430
 H      -13.125159709    13.444431978     1.227513143
 H      -13.144170151    15.692045549     0.475319585
 H      -11.633861495    15.081035517    -0.188150418
 H      -12.700497651    16.404102489    -1.917394047
 H      -12.733301305    14.699668005    -2.431238730
 H        2.267017528    -1.028738449     0.061988893
 H        2.272128508     0.562457885     0.861381463
 H        2.277021276     0.455659484    -0.919549622
 H      -33.321378144    12.067064903    -5.061355402
 H      -31.712631177    12.620722113    -5.582796853
 H      -31.955288033    12.029753441    -3.918487889
 H      -31.580037575    10.635723643    -7.948697536
 H      -31.953225268     8.914067517    -7.696638146
 H      -33.248480727    10.132838188    -7.571361888
 H      -32.622212700     8.953149773    -3.468894599
 H      -33.950449853     9.159558988    -4.638369641
 H      -32.736536163     7.882707685    -4.889519040
 H      -18.329747925     8.741370597    -6.047326376
 H      -17.147003345     7.770626938    -5.127291130
 H      -18.718464876     7.067249576    -5.588313017
 H      -19.272526587     7.607772439    -1.375575777
 H      -19.175515534     6.333997062    -2.618212232
 H      -17.693863825     7.154918502    -2.066487022
 H       -3.993841545    12.690720393     2.321897007
 H       -2.474204159    13.325108860     1.647818186
 H       -3.965586171    14.295507999     1.540277757
 H       -3.369843161    12.982178147    -2.527943383
 H       -3.690301026    14.476589060    -1.612553190
 H       -2.136847311    13.626484076    -1.414158153
 H       -0.279693363    -0.362166948    -2.450024335
 H       -0.270474639    -1.914726067    -1.574188413
 H       -1.729004620    -0.889694208    -1.561782996
 H       -0.283479450    -0.362208155     2.448895464
 H       -1.708782870    -0.947732610     1.556717460
 H       -0.214443587    -1.916655019     1.579532847

