139   

Si        0.000000000     0.000000000     0.000000000
 C        1.869515353     0.000000000     0.000000000
 C       -0.623306011     1.738209681     0.000000000
 C        0.076696015     2.740734670    -0.680684200
 C       -0.389330252     4.054768162    -0.684008323
 C       -1.568478600     4.396402248    -0.015419755
 C       -2.270688267     3.390605684     0.660964642
 C       -1.805822933     2.077557215     0.668500319
 C       -2.093414443     5.757903385     0.007759478
 C       -1.515164423     6.809642555    -0.596816828
 C       -2.037636779     8.171908446    -0.575369947
 C       -3.216136248     8.517910781     0.091816704
 C       -3.678413739     9.833416357     0.085786425
 C       -2.978023644    10.830915699    -0.601200193
 C       -1.798043421    10.486661961    -1.272111698
 C       -1.332350968     9.174312438    -1.254225154
Si       -3.588748571    12.572648132    -0.610048933
 C       -2.896453839    13.462610143     0.833169799
 C       -2.076999939    12.911192852     1.738478098
 C       -1.523105415    13.621154736     2.892133171
 C       -0.674617835    12.928866871     3.768806768
 C       -0.123119739    13.552288220     4.875706204
 C       -0.365584226    14.922188832     5.120008447
 C       -1.216044866    15.618117903     4.239675887
 C       -1.797431444    14.964414689     3.160360164
 N        0.199961736    15.541462261     6.246198289
 C        1.505762557    15.045821316     6.716086266
 C        0.025719299    16.995514417     6.373165194
 C        2.630285648    15.064717095     5.666624133
 C        3.298877277    16.438498735     5.488822667
 N        4.311910354    16.780680970     6.503057508
 C        5.379575932    15.887643829     6.684468351
 C        5.869466672    15.147566533     5.585745645
 C        6.922285552    14.262747402     5.749603721
 C        7.559368730    14.111785667     6.989854393
 C        7.093215106    14.868012179     8.068606745
 C        6.028241570    15.748292869     7.926723551
 C        3.768441564    17.432362494     7.703488828
 C        8.667244549    13.162081013     7.107033994
 C        9.346978435    12.936551001     8.238990070
Si       10.737195619    11.758355330     8.426221683
 C       12.225788592    12.708729867     8.960316819
 C       12.367213122    14.052997464     8.599092564
 C       13.488761889    14.778706648     8.998318449
 C       14.496045367    14.176407516     9.757760870
 C       14.353801692    12.828658475    10.113454338
 C       13.232877723    12.101673644     9.719778713
 C       15.686635135    14.896759904    10.197555835
 C       15.943069390    16.187479852     9.924851107
 C       17.133176022    16.909005601    10.363993364
 C       18.139968076    16.310640397    11.126603494
 C       19.260867547    17.038725689    11.524510084
 C       19.404784014    18.381406111    11.159300405
 C       18.397859427    18.982923767    10.393835932
 C       17.275644980    18.255836503    10.004985906
Si       20.887662262    19.348258686    11.684491533
 C       22.358543950    18.211507446    11.882972651
 C       21.293319830    20.643789646    10.399173164
 C       20.501485269    20.173437961    13.315839874
 C       10.260544907    10.504324062     9.726775786
 C       11.132424254    10.890536910     6.821178745
 C       -3.047802240    13.440606708    -2.174273667
 C       -5.454242646    12.601043631    -0.503079506
 C       -0.634249740    -0.851487627    -1.537384415
 C       -0.607749418    -0.904379934     1.518845823
 H        1.003596073     2.535025854    -1.223434780
 H        0.177252031     4.816792332    -1.216417425
 H       -3.191226625     3.634571939     1.188231215
 H       -2.395439386     1.336883820     1.215708099
 H       -3.024602377     5.879995928     0.568830032
 H       -0.584453812     6.686043681    -1.158504020
 H       -3.783769957     7.758465691     0.626420237
 H       -4.602949935    10.044300642     0.631345565
 H       -1.208174619    11.223998174    -1.824175563
 H       -0.411310378     8.926797643    -1.778554436
 H       -3.210090332    14.514298556     0.908651754
 H       -1.752105998    11.861617872     1.681762213
 H       -0.453450730    11.875958273     3.585024086
 H        0.499077137    12.976055527     5.554906354
 H       -1.436918302    16.668871118     4.392585127
 H       -2.466672212    15.522606775     2.504125186
 H        0.514170355    17.358159326     7.292550215
 H       -1.053037636    17.219897608     6.477424265
 H        0.421786788    17.564932158     5.516269939
 H        2.935204611    18.100205285     7.429613479
 H        4.553424741    18.071431674     8.151249465
 H        3.413342036    16.723301704     8.469440342
 H        5.420890261    15.264337430     4.603177971
 H        7.269406684    13.685434030     4.891692322
 H        7.571391613    14.772516480     9.045255863
 H        5.700839813    16.314442422     8.792275680
 H        8.893687733    12.644216161     6.165568759
 H        9.096514115    13.471614947     9.169237153
 H       11.610378153    14.576794352     8.005077223
 H       13.573544191    15.824908003     8.709282762
 H       15.126491573    12.341101331    10.704719977
 H       13.175310848    11.054657740    10.029032794
 H       16.389969359    14.301664940    10.787368170
 H       15.239918027    16.782650990     9.334524832
 H       18.055645932    15.265444611    11.418811374
 H       20.012853922    16.516195072    12.122244342
 H       18.456074568    20.028212655    10.078042627
 H       16.502731741    18.741828467     9.412193189
 H        1.804099064    15.625995151     7.616406684
 H        1.352814348    14.000717452     7.080424555
 H        3.395381238    14.309556466     5.941856637
 H        2.233054736    14.725917176     4.687309996
 H        3.799377216    16.483688054     4.491018160
 H        2.531930514    17.243278744     5.465376510
 H        2.269057988    -1.028342359     0.053988298
 H        2.268911209     0.557405360     0.866768178
 H        2.279493833     0.465758354    -0.913117539
 H       23.268785321    18.779056610    12.146585080
 H       22.568899959    17.663028407    10.946915050
 H       22.194647571    17.463617878    12.678326466
 H       21.442275934    20.187360266     9.403785981
 H       20.488589198    21.393689528    10.305114109
 H       22.220817273    21.185445358    10.657107204
 H       20.262636198    19.429076516    14.096680859
 H       21.355415426    20.773643070    13.675922797
 H       19.630852801    20.848164443    13.229035423
 H       10.118285802    10.980607816    10.713619137
 H        9.312543572    10.000744688     9.463198147
 H       11.030859654     9.722116610     9.841066479
 H       11.414922726    11.610982119     6.031897161
 H       11.978027448    10.189765891     6.942332886
 H       10.268102381    10.309720409     6.453222751
 H       -1.949424485    13.547493059    -2.222575568
 H       -3.370434821    12.882597886    -3.071598057
 H       -3.479197846    14.455179781    -2.240085847
 H       -5.813870314    12.192877563     0.458460795
 H       -5.845783300    13.630120060    -0.589720972
 H       -5.909138049    12.002011271    -1.312311618
 H       -0.288116149    -0.340120479    -2.453583682
 H       -0.289698251    -1.899252064    -1.588744685
 H       -1.738871693    -0.860900105    -1.564741819
 H       -0.317404775    -0.374525197     2.444148292
 H       -1.707140012    -1.005884436     1.522580696
 H       -0.182775159    -1.922594902     1.573570914

