139   

Si        0.000000000     0.000000000     0.000000000
 C        1.869398688     0.000000000     0.000000000
 C       -0.638560714     1.732316403     0.000000000
 C        0.108826078     2.771345261    -0.564795868
 C       -0.377331400     4.078401983    -0.562620119
 C       -1.621993397     4.376708869    -0.001405687
 C       -2.371422600     3.334289751     0.559717087
 C       -1.888175813     2.028203618     0.559227532
 C       -2.171259721     5.728404078     0.023845493
 C       -1.557342452     6.813531071    -0.477605377
 C       -2.108540066     8.164498811    -0.451266389
 C       -1.361744459     9.208698079    -1.010976293
 C       -1.847654811    10.514731021    -1.008736138
 C       -3.090996762    10.807557487    -0.438555741
 C       -3.839212685     9.765392586     0.123343733
 C       -3.353008353     8.459575103     0.114292906
Si       -3.770205889    12.522536741    -0.414949150
 C       -5.335470377    12.582640494    -1.367851413
 C       -5.892435703    11.532276660    -1.984295551
 C       -7.143324450    11.587917893    -2.743842785
 C       -7.618906827    10.410809317    -3.342736020
 C       -8.796297904    10.407988763    -4.071939132
 C       -9.517397030    11.604880766    -4.258305282
 C       -9.046368411    12.783239981    -3.660562086
 C       -7.883899220    12.761974485    -2.896735911
 N      -10.714531968    11.533530004    -5.014605170
 C      -10.549964792    11.092178683    -6.413805005
 C      -11.642067451    12.665243780    -4.862059396
 C      -10.098334797    12.167732917    -7.417414115
 C       -8.627835207    12.600024996    -7.265715628
 N       -7.637582183    11.669448658    -7.830312065
 C       -7.804153233    11.259819435    -9.158232131
 C       -8.324480685    12.167353849   -10.108683470
 C       -8.496121759    11.779651182   -11.426735889
 C       -8.121239860    10.500538621   -11.863582472
 C       -7.579759476     9.614354468   -10.928067701
 C       -7.412946670     9.980013248    -9.599198838
 C       -7.100425581    10.692595198    -6.874853037
 C       -8.325195795    10.143509932   -13.268102845
 C       -8.006048980     8.954407331   -13.796215051
Si       -8.245168009     8.469825495   -15.545817014
 C       -6.601421628     8.044844003   -16.269204921
 C       -5.420089391     8.487203020   -15.661841206
 C       -4.181556158     8.164182256   -16.211129157
 C       -4.093608920     7.399509038   -17.381616011
 C       -5.275602441     6.963675256   -17.987700623
 C       -6.517085635     7.282888195   -17.439388791
 C       -2.773226539     7.086778908   -17.918942256
 C       -2.551280067     6.362738772   -19.029054865
 C       -1.231227570     6.049763977   -19.566737110
 C       -0.048130761     6.484306760   -18.962665305
 C        1.192649322     6.161598929   -19.511384930
 C        1.278025111     5.388124921   -20.673839335
 C        0.093814398     4.950697013   -21.280565789
 C       -1.144131303     5.280943843   -20.734828411
Si        2.917706249     4.957678767   -21.404941730
 C        4.230288843     4.932000842   -20.073694594
 C        2.834960516     3.269084058   -22.203483158
 C        3.345220065     6.245943147   -22.689195643
 C       -9.364683077     6.973806963   -15.583623397
 C       -8.994790070     9.853877516   -16.550510446
 C       -4.113830446    13.018162370     1.352725870
 C       -2.568568683    13.728489172    -1.183715185
 C       -0.630747388    -0.858181360    -1.535268994
 C       -0.603656248    -0.900948422     1.523066940
 H        1.089158905     2.600463465    -1.018305350
 H        0.225867683     4.868989868    -1.005690461
 H       -3.343694924     3.544317396     1.001834225
 H       -2.518096443     1.257336087     1.011864566
 H       -3.155072017     5.813089054     0.495119852
 H       -0.573626900     6.729663390    -0.948658030
 H       -0.390025604     9.001125203    -1.455367463
 H       -1.222252158    11.287336600    -1.464406069
 H       -4.817379704     9.935358351     0.584661262
 H       -3.953362446     7.666486804     0.556663175
 H       -5.802681558    13.578866585    -1.398875180
 H       -5.440908264    10.529101053    -1.970680139
 H       -7.062669925     9.480273106    -3.218626300
 H       -9.179660091     9.479924409    -4.491536068
 H       -9.583139632    13.719084734    -3.782456518
 H       -7.543145089    13.685712113    -2.427617422
 H      -12.588823337    12.423627648    -5.375928178
 H      -11.266189684    13.621924232    -5.256876534
 H      -11.877962566    12.794197139    -3.790253200
 H       -6.955507779    11.170121220    -5.887668197
 H       -6.102020974    10.360999061    -7.215885442
 H       -7.743865070     9.809083151    -6.735630444
 H       -8.590610875    13.176477639    -9.808837512
 H       -8.916824112    12.489808999   -12.139420477
 H       -7.278905769     8.612916770   -11.241075551
 H       -6.992852515     9.259000252    -8.905572485
 H       -8.768973062    10.954913266   -13.860220813
 H       -7.562889204     8.157950912   -13.176694052
 H       -5.429000559     9.090278534   -14.747460144
 H       -3.273214228     8.513671082   -15.723336715
 H       -5.235088996     6.368408462   -18.897872124
 H       -7.406304901     6.913235390   -17.956973475
 H       -1.936970789     7.492963392   -17.342055199
 H       -3.387524107     5.956949347   -19.605834170
 H       -0.086659787     7.082862009   -18.054140353
 H        2.082237965     6.532482964   -18.994624688
 H        0.098321092     4.343462930   -22.189867360
 H       -2.053126316     4.933602497   -21.222506485
 H       -9.842568520    10.233432460    -6.440155313
 H      -11.538005869    10.683614726    -6.735689409
 H      -10.268047211    11.782555094    -8.445131534
 H      -10.746754822    13.059695069    -7.334606684
 H       -8.477273171    13.587833492    -7.763941152
 H       -8.387234060    12.772025633    -6.190965427
 H        2.267775091    -1.028010886     0.069223680
 H        2.269639184     0.569326142     0.858506265
 H        2.279702171     0.450910020    -0.920463320
 H        5.204754550     4.608501684   -20.480846212
 H        3.961741732     4.232901879   -19.261081702
 H        4.376388977     5.928929794   -19.622377654
 H        2.507218728     2.501145361   -21.479421037
 H        2.128464043     3.250398123   -23.051460187
 H        3.822744796     2.961296876   -22.589902124
 H        3.403757327     7.254663578   -22.241909991
 H        4.318769825     6.033898927   -23.164683130
 H        2.583678242     6.284682981   -23.488676147
 H       -8.908336063     6.117370314   -15.054860855
 H      -10.332119842     7.187720228   -15.094530020
 H       -9.578047794     6.651191608   -16.617307888
 H       -8.352591541    10.753624740   -16.535098371
 H       -9.121606921     9.560070285   -17.607726872
 H       -9.987797821    10.141820294   -16.162506156
 H       -4.848666013    12.342228779     1.826401480
 H       -3.192605917    12.984110680     1.962443289
 H       -4.517713718    14.044014392     1.414639977
 H       -2.369134204    13.479142162    -2.242021319
 H       -2.963060365    14.760119798    -1.158753618
 H       -1.601895879    13.731106002    -0.649257472
 H       -0.284918648    -0.347519179    -2.452107828
 H       -0.281928246    -1.904673094    -1.583995033
 H       -1.735137298    -0.872110172    -1.563364503
 H       -0.306397095    -0.369267886     2.445241814
 H       -1.703221039    -0.998041341     1.534036874
 H       -0.182026755    -1.920465131     1.576805036

