139   

Si        0.000000000     0.000000000     0.000000000
 C        1.869550951     0.000000000     0.000000000
 C       -0.639729801     1.731400247     0.000000000
 C        0.178585973     2.805414133    -0.362938110
 C       -0.317694109     4.109071585    -0.358578712
 C       -1.638002949     4.369640969     0.015969251
 C       -2.457996937     3.291845255     0.377375676
 C       -1.968572322     1.988445414     0.363914138
 C       -2.197741768     5.716127724     0.034901703
 C       -1.524374720     6.830878610    -0.297291093
 C       -2.095095873     8.173666585    -0.274579390
 C       -1.292011683     9.260923361    -0.643356331
 C       -1.800043358    10.558022065    -0.634658674
 C       -3.129166755    10.795592136    -0.264630716
 C       -3.930960116     9.711509882     0.108123524
 C       -3.415824026     8.416531816     0.111260388
Si       -3.819695251    12.508099462    -0.247247380
 C       -5.617054924    12.340269427     0.070129359
 C       -6.295106123    12.855810850     1.102266836
 C       -7.737567291    12.682736555     1.296475093
 C       -8.341683616    13.270377931     2.418321306
 C       -9.701009939    13.137164230     2.648443120
 C      -10.504668411    12.440322442     1.728615835
 C       -9.912189109    11.857453016     0.602598171
 C       -8.539276785    11.970924649     0.402133368
 N      -11.896750884    12.345827111     2.035909886
 C      -12.595053407    13.642042044     1.905140596
 C      -12.612905887    11.242596867     1.372552164
 C      -12.734378200    14.142285628     0.453259330
 C      -12.955393891    15.665687634     0.391970195
 N      -11.765101882    16.441450193    -0.011072097
 C      -10.669020261    16.409514436     0.881133060
 C      -10.903381923    16.647555652     2.251385791
 C       -9.852810063    16.624045124     3.154476421
 C       -8.531197481    16.440187096     2.723294084
 C       -8.298435536    16.243195176     1.359212909
 C       -9.345072557    16.228443535     0.445837526
 C      -11.448340236    16.277443240    -1.440575178
 C       -7.456656577    16.423156133     3.718260210
 C       -6.161572420    16.255234354     3.420130265
Si       -4.787164006    16.227378079     4.631069606
 C       -3.948027270    14.588170167     4.502284025
 C       -4.676266573    13.418965629     4.258095853
 C       -4.030595248    12.185419358     4.162811617
 C       -2.643034678    12.096633124     4.304620324
 C       -1.916551840    13.269694909     4.555076424
 C       -2.559762189    14.499268164     4.661051749
 C       -1.906599297    10.842179441     4.216569660
 C       -2.439005262     9.630577463     3.983776875
 C       -1.648501008     8.404541392     3.906126155
 C       -0.259388619     8.407536926     4.071572024
 C        0.472096592     7.225222627     3.993027947
 C       -0.172065400     6.005301097     3.753467591
 C       -1.560882027     5.998458735     3.585995482
 C       -2.289358628     7.185566864     3.656568633
Si        0.841606090     4.466033660     3.658161332
 C        1.773571132     4.277094616     5.271011232
 C       -0.242541636     2.968773571     3.413378987
 C        2.061030955     4.616861598     2.250799410
 C       -3.610120467    17.609223454     4.189300068
 C       -5.401297562    16.441245791     6.380647325
 C       -2.945779400    13.572181004     1.000621464
 C       -3.617640677    13.265673834    -1.946727621
 C       -0.633724558    -0.869153010    -1.526939226
 C       -0.603827227    -0.878963036     1.536115472
 H        1.222127127     2.665717576    -0.657923932
 H        0.335484379     4.928178691    -0.656264043
 H       -3.490908182     3.472900988     0.668406203
 H       -2.656288224     1.187768498     0.648840372
 H       -3.244167046     5.771165815     0.348760457
 H       -0.475702669     6.782124667    -0.603016145
 H       -0.257130603     9.093279859    -0.934590665
 H       -1.125690836    11.368304556    -0.923246035
 H       -4.972668911     9.837269429     0.421350632
 H       -4.056640882     7.591674272     0.416800470
 H       -6.132933981    11.750890454    -0.706622139
 H       -5.814643392    13.454970688     1.888051466
 H       -7.735077343    13.837699287     3.128170791
 H      -10.155314674    13.576175761     3.535204783
 H      -10.513373044    11.316587517    -0.121252904
 H       -8.095570676    11.502719645    -0.476934181
 H      -13.614182950    11.151596119     1.828285797
 H      -12.078219765    10.296143113     1.567448375
 H      -12.735177308    11.360414231     0.285641881
 H      -12.364064449    16.428980278    -2.036954673
 H      -11.026045287    15.292393691    -1.696655692
 H      -10.733888829    17.063351966    -1.746223520
 H      -11.911929913    16.848853734     2.602337650
 H      -10.058962009    16.776170636     4.214163504
 H       -7.280911937    16.085093343     0.995533710
 H       -9.121515641    16.045441555    -0.600778449
 H       -7.816789934    16.562228789     4.746014980
 H       -5.830193779    16.124658322     2.376425136
 H       -5.765449614    13.428493817     4.143700976
 H       -4.617562703    11.288666513     3.968081717
 H       -0.835736214    13.220736385     4.672915663
 H       -1.939147654    15.376277208     4.862729689
 H       -0.825388926    10.947708277     4.358419534
 H       -3.513473282     9.505134886     3.829397427
 H        0.266479421     9.341846653     4.260365328
 H        1.555252478     7.294648459     4.125746096
 H       -2.113197789     5.076184912     3.386554414
 H       -3.367889157     7.160762913     3.514657678
 H      -13.596240302    13.535728093     2.376602295
 H      -12.035979725    14.389865347     2.515808172
 H      -11.824819903    13.868783509    -0.118630386
 H      -13.565769864    13.617629210    -0.048183344
 H      -13.769139837    15.903484306    -0.331062309
 H      -13.312949497    16.054386250     1.371522851
 H        2.267848409    -1.027498819     0.075831868
 H        2.270487834     0.575046389     0.854310013
 H        2.278161168     0.443427077    -0.924980370
 H        2.399775814     3.368351522     5.267801083
 H        1.077510890     4.200372425     6.125519306
 H        2.435458246     5.139467991     5.461286710
 H       -0.980602501     2.860779432     4.226606728
 H       -0.800602029     3.033281021     2.458342402
 H        0.355655857     2.041408895     3.379716766
 H        2.731223085     5.483137951     2.385713191
 H        2.688645374     3.712731092     2.168136007
 H        1.536299112     4.748296515     1.286878574
 H       -3.148809147    17.448704345     3.198463601
 H       -4.135603794    18.581177518     4.154729347
 H       -2.794934846    17.702496401     4.927636114
 H       -6.107724436    15.639562470     6.663017382
 H       -4.566468851    16.410163400     7.103910290
 H       -5.918134541    17.408138807     6.512702315
 H       -3.043799567    13.163104319     2.026038721
 H       -1.865070125    13.644472118     0.786079638
 H       -3.353877771    14.598722146     1.017555145
 H       -4.082305921    12.637548999    -2.726950522
 H       -4.088618830    14.263274056    -1.997402623
 H       -2.552102808    13.384681975    -2.208722880
 H       -0.289793006    -0.364807696    -2.448130563
 H       -0.284479581    -1.915719768    -1.569516217
 H       -1.738000554    -0.883851675    -1.553782403
 H       -0.288860173    -0.345370259     2.451442090
 H       -1.704964452    -0.953600673     1.558357192
 H       -0.201289031    -1.905606815     1.594197919

