139   

Si        0.000000000     0.000000000     0.000000000
 C        1.869406413     0.000000000     0.000000000
 C       -0.635058929     1.733669314     0.000000000
 C        0.080892321     2.751956468    -0.639094156
 C       -0.396359591     4.062067668    -0.640651636
 C       -1.602520017     4.383905037    -0.011787698
 C       -2.320670874     3.362171981     0.623006397
 C       -1.844923765     2.053090273     0.628631293
 C       -2.140325602     5.740381707     0.011831212
 C       -1.549962342     6.806271048    -0.554960853
 C       -2.085918278     8.163450817    -0.532559629
 C       -3.292009264     8.487536772     0.095788168
 C       -3.767223207     9.798425994     0.092888319
 C       -3.039929344    10.815359630    -0.534453633
 C       -1.831559088    10.494868295    -1.164899477
 C       -1.363449455     9.183157099    -1.165802172
Si       -3.664155489    12.551180339    -0.541162916
 C       -2.247952501    13.673666276    -0.845160194
 C       -2.137745029    14.519861155    -1.877331404
 C       -0.991822334    15.405861538    -2.093726413
 C       -0.991921234    16.249877177    -3.215517885
 C        0.066474818    17.106025066    -3.465649130
 C        1.153347633    17.174606334    -2.567053718
 C        1.157160803    16.330003664    -1.444824593
 C        0.105384973    15.445712293    -1.230982559
 N        2.209113648    18.061859851    -2.863934874
 C        1.816597368    19.451374727    -3.189716235
 C        3.408340191    17.973618940    -2.015902197
 C        0.627147181    20.015754150    -2.396732597
 C        0.881318727    20.058996843    -0.879281769
 N       -0.359623975    20.147738573    -0.087000610
 C       -1.179642841    21.268538491    -0.315508046
 C       -0.596203199    22.512423308    -0.640412659
 C       -1.392312371    23.623059967    -0.867634511
 C       -2.786563662    23.557439005    -0.731275762
 C       -3.359819894    22.333411288    -0.376775964
 C       -2.577993274    21.205567764    -0.162883506
 C       -1.038661509    18.847145494     0.051739561
 C       -3.578284891    24.761838404    -0.983787104
 C       -4.913021337    24.823776418    -0.886400397
Si       -5.909424940    26.327671728    -1.201037453
 C       -4.794868796    27.722821091    -1.666830457
 C       -3.916007698    28.253524065    -0.712213635
 C       -3.066887685    29.305855324    -1.042566537
 C       -3.066865800    29.848920067    -2.334808539
 C       -3.940112026    29.314192247    -3.285312199
 C       -4.794759306    28.261709395    -2.956400052
 C       -2.158497154    30.951486271    -2.633021205
 C       -2.062529056    31.561322540    -3.826672818
 C       -1.154651705    32.663903075    -4.126162667
 C       -0.280263617    33.200331509    -3.176775036
 C        0.570582078    34.254629346    -3.506872021
 C        0.574008412    34.789305987    -4.799821292
 C       -0.299702551    34.252048880    -5.753303141
 C       -1.155050103    33.205151986    -5.418392560
Si        1.700593816    36.185397251    -5.237186203
 C        3.264844637    36.088186289    -4.217848330
 C        2.153260959    36.099955391    -7.049128708
 C        0.811845434    37.790136695    -4.882078012
 C       -7.123294350    25.957873827    -2.572972095
 C       -6.844752644    26.780856643     0.351944381
 C       -4.968371118    12.709272074    -1.867325754
 C       -4.392074589    12.981767151     1.124958377
 C       -0.631984621    -0.855264951    -1.536473631
 C       -0.604101514    -0.904837226     1.520437917
 H        1.029450042     2.562289355    -1.149245558
 H        0.182148556     4.836583492    -1.141326759
 H       -3.262539818     3.590528400     1.118623677
 H       -2.448560788     1.299193114     1.141393249
 H       -3.092825235     5.845697653     0.539520531
 H       -0.597662265     6.699974736    -1.083197979
 H       -3.872871773     7.713599790     0.594106035
 H       -4.717318095     9.990813024     0.598665459
 H       -1.223252397    11.251290968    -1.672155317
 H       -0.423397491     8.951496074    -1.663537728
 H       -1.457492147    13.601217903    -0.080545960
 H       -2.909459766    14.614308369    -2.652822176
 H       -1.832414632    16.223389475    -3.910249696
 H        0.068433242    17.723831490    -4.360718319
 H        1.977339582    16.352688646    -0.734343858
 H        0.139389180    14.786121506    -0.362113333
 H        4.217236692    18.570103350    -2.473926373
 H        3.763709901    16.927155025    -1.993078803
 H        3.261729751    18.320708272    -0.981114331
 H       -0.295642194    18.039401524     0.174958677
 H       -1.672674815    18.584558090    -0.811317791
 H       -1.657849534    18.858438174     0.966453000
 H        0.482706198    22.607089601    -0.719334558
 H       -0.922162565    24.568338970    -1.142814066
 H       -4.441819657    22.254385628    -0.262676598
 H       -3.065555206    20.275284594     0.111102095
 H       -2.964494060    25.629547421    -1.268108796
 H       -5.507366938    23.942278367    -0.602372518
 H       -3.868608046    27.867214977     0.310790456
 H       -2.394601020    29.708719702    -0.287261294
 H       -3.960001627    29.716499322    -4.296498139
 H       -5.454383965    27.884942734    -3.742891198
 H       -1.532706706    31.268699754    -1.793576799
 H       -2.688836154    31.244455136    -4.665913128
 H       -0.258724859    32.797972978    -2.165513199
 H        1.228713089    34.634184060    -2.720220041
 H       -0.340809471    34.628277075    -6.779255067
 H       -1.828717887    32.803079386    -6.172926655
 H        2.699047990    20.117500651    -3.071640078
 H        1.566580288    19.462297526    -4.278962062
 H        0.386545725    21.032024962    -2.766995598
 H       -0.284488115    19.418026267    -2.601957744
 H        1.430323371    19.148447677    -0.547716889
 H        1.535437865    20.918778402    -0.613468487
 H        2.268303588    -1.027429937     0.073212407
 H        2.269364728     0.573119884     0.856161099
 H        2.279598363     0.448098678    -0.921856680
 H        3.984615927    36.871471762    -4.515304154
 H        3.765433516    35.111377634    -4.346355101
 H        3.061129535    36.219604415    -3.140779179
 H        2.605937154    35.124118786    -7.302258646
 H        1.271581418    36.237555674    -7.699091488
 H        2.884568721    36.883853130    -7.315274929
 H        0.531285549    37.867296384    -3.816160169
 H        1.443036465    38.662705776    -5.125749184
 H       -0.117864950    37.874222554    -5.473140614
 H       -6.605391490    25.631947273    -3.493138212
 H       -7.819166157    25.149834060    -2.284871709
 H       -7.731126209    26.845304944    -2.823187914
 H       -6.159396434    26.958543040     1.200149426
 H       -7.437238960    27.701887908     0.205391264
 H       -7.541963556    25.978861076     0.651702595
 H       -4.559497325    12.465332966    -2.865058440
 H       -5.812760636    12.020783740    -1.683020335
 H       -5.377648546    13.734052738    -1.911927418
 H       -3.661211230    12.818932349     1.937717456
 H       -4.699372303    14.042571186     1.163214283
 H       -5.282551120    12.369481295     1.350436560
 H       -0.288585245    -0.342077100    -2.452722089
 H       -0.282305726    -1.901289293    -1.588028580
 H       -1.736486158    -0.870107474    -1.562771289
 H       -0.311615250    -0.373612456     2.444318333
 H       -1.703372983    -1.006608940     1.527342988
 H       -0.178657506    -1.922796291     1.574360858

