139   

Si        0.000000000     0.000000000     0.000000000
 C        1.869552914     0.000000000     0.000000000
 C       -0.625269252     1.736880582     0.000000000
 C        0.048559563     2.729348767    -0.720865505
 C       -0.417649184     4.043210985    -0.725602550
 C       -1.569035094     4.394681732    -0.015317087
 C       -2.245311536     3.399227090     0.701721962
 C       -1.781625345     2.085953601     0.707997042
 C       -2.093878615     5.754820759     0.009036188
 C       -1.546773825     6.802062732    -0.631465727
 C       -2.087904376     8.156338376    -0.594361325
 C       -3.242819029     8.474829437     0.126599305
 C       -3.734280327     9.777235597     0.142222658
 C       -3.088276282    10.787990143    -0.581206458
 C       -1.936449031    10.472519023    -1.308080230
 C       -1.440285946     9.169749045    -1.310961318
Si       -3.785462676    12.492942285    -0.522219434
 C       -3.917282015    13.027223210     1.226172997
 C       -3.554655846    12.271645429     2.271147670
 C       -3.654393616    12.685246375     3.670678850
 C       -3.235891926    11.787552649     4.666054471
 C       -3.307527834    12.125482770     6.006247557
 C       -3.850230015    13.368243969     6.396195412
 C       -4.273750764    14.266129601     5.402963748
 C       -4.156513947    13.927808511     4.059075035
 N       -3.903993359    13.672126297     7.774532089
 C       -4.474167218    12.618897761     8.641373544
 C       -4.347219411    15.028031699     8.136572096
 C       -5.688204086    11.863137244     8.074096954
 C       -6.809511771    12.808406439     7.609766385
 N       -8.032059918    12.102967238     7.192085080
 C       -7.931529164    11.221430225     6.097989575
 C       -7.050636363    11.502301885     5.032030520
 C       -6.948938663    10.637096864     3.953510951
 C       -7.741348603     9.482260521     3.872887251
 C       -8.633335473     9.222057178     4.916497310
 C       -8.741910004    10.073953608     6.007496308
 C       -8.847627749    11.657240110     8.334523743
 C       -7.610069856     8.587686800     2.719501912
 C       -8.329956450     7.467455227     2.569875682
Si       -8.264394409     6.269989113     1.187265025
 C       -7.033630200     6.754886948    -0.093735754
 C       -7.083884455     8.046457147    -0.632949206
 C       -6.166048143     8.441187734    -1.603188812
 C       -5.206613126     7.544855439    -2.084636158
 C       -5.168465285     6.249362424    -1.554854607
 C       -6.069032231     5.858705787    -0.566162579
 C       -4.228421290     7.919587429    -3.099972591
 C       -4.165088983     9.129362255    -3.680938755
 C       -3.190675819     9.511233907    -4.696085072
 C       -2.211533824     8.632205179    -5.167359884
 C       -1.299084864     9.039377279    -6.139501209
 C       -1.340521654    10.339638476    -6.654992041
 C       -2.315461575    11.224147657    -6.177766537
 C       -3.226605622    10.814791356    -5.207315996
Si       -0.129780991    10.872278703    -7.941696328
 C        0.265871529     9.437508700    -9.073160630
 C       -0.840934353    12.269355924    -8.960462454
 C        1.425631416    11.448254561    -7.079724279
 C       -7.830466095     4.597946921     1.905191332
 C       -9.948491834     6.196361263     0.380084966
 C       -2.704718021    13.693128940    -1.457281848
 C       -5.496569656    12.456246201    -1.276557798
 C       -0.633557365    -0.852186998    -1.537794863
 C       -0.606092244    -0.907846524     1.517792203
 H        0.954304043     2.515226558    -1.294845340
 H        0.126910406     4.797769533    -1.290593851
 H       -3.143973290     3.652048602     1.262106330
 H       -2.350016963     1.352423883     1.286147852
 H       -3.004373826     5.881685708     0.604765675
 H       -0.639680868     6.683668278    -1.229915282
 H       -3.774695295     7.701592807     0.681463215
 H       -4.646081190     9.961548295     0.720491296
 H       -1.396113035    11.220321139    -1.894393376
 H       -0.543736008     8.941812576    -1.884081996
 H       -4.326375244    14.038615119     1.363530286
 H       -3.132211457    11.261092336     2.155600923
 H       -2.837702416    10.812059595     4.380866891
 H       -2.942694562    11.434039056     6.761533012
 H       -4.696855263    15.230125754     5.665638550
 H       -4.480909074    14.644490236     3.303848260
 H       -4.166949333    15.191139832     9.213455046
 H       -5.408251227    15.230898396     7.924203152
 H       -3.728179916    15.769610313     7.599060698
 H       -8.856783027    12.435317141     9.115819932
 H       -8.496502673    10.715593101     8.786422216
 H       -9.894511331    11.528535196     8.003182472
 H       -6.428353586    12.396098819     5.053396507
 H       -6.242216828    10.869215199     3.152994443
 H       -9.265474095     8.333468506     4.883254390
 H       -9.451186258     9.828338354     6.790414177
 H       -6.859047736     8.918124731     1.989526370
 H       -9.070461021     7.172092247     3.333071756
 H       -7.825990206     8.783727903    -0.310781977
 H       -6.205357524     9.457622937    -1.991997150
 H       -4.423720280     5.539467947    -1.913217155
 H       -5.987046171     4.837909514    -0.183792665
 H       -3.518766016     7.130845225    -3.366904982
 H       -4.871594245     9.917599826    -3.405152671
 H       -2.157816983     7.616288464    -4.779173864
 H       -0.560787480     8.305661664    -6.473905353
 H       -2.395548605    12.250998052    -6.543922234
 H       -3.974857766    11.516924042    -4.844436443
 H       -3.651533871    11.889545822     8.841398873
 H       -4.733585978    13.061910622     9.627590205
 H       -5.377474171    11.221998259     7.221941001
 H       -6.071499689    11.163467492     8.839723772
 H       -7.075004196    13.525065043     8.417802514
 H       -6.460840228    13.430931114     6.750964386
 H        2.269140127    -1.028074168     0.057226846
 H        2.268685289     0.560552909     0.864934586
 H        2.279215416     0.463626627    -0.914301628
 H        0.938228140     9.748231126    -9.892398329
 H       -0.651655832     9.027918380    -9.533495632
 H        0.762816684     8.613544945    -8.532121989
 H       -1.808033732    11.983002863    -9.411978468
 H       -1.010882695    13.174656948    -8.351971219
 H       -0.160376168    12.548755299    -9.784388417
 H        1.870311921    10.640858196    -6.470894371
 H        2.188790223    11.779233286    -7.805588457
 H        1.218653412    12.295668666    -6.401758176
 H       -6.826904819     4.608322328     2.368028399
 H       -8.551003893     4.300158158     2.687118931
 H       -7.838887697     3.810371586     1.131619750
 H      -10.239145649     7.179536190    -0.032195273
 H       -9.959769116     5.472395893    -0.454221274
 H      -10.729374765     5.892452717     1.098481226
 H       -1.690049577    13.742579215    -1.021393928
 H       -2.599224182    13.398851667    -2.517146283
 H       -3.121242842    14.715203142    -1.436343631
 H       -6.158677827    11.753445210    -0.738314553
 H       -5.972695575    13.451521207    -1.243264882
 H       -5.459018106    12.140171696    -2.333900591
 H       -0.288331060    -0.339373704    -2.453368194
 H       -0.287106903    -1.899266108    -1.589784841
 H       -1.738070187    -0.863612114    -1.564263634
 H       -0.313187737    -0.380036548     2.443433554
 H       -1.705546418    -1.007980807     1.522937541
 H       -0.182259859    -1.926673900     1.568970989

