139   

Si        0.000000000     0.000000000     0.000000000
 C        1.868911161     0.000000000     0.000000000
 C       -0.661884031     1.723121265     0.000000000
 C        0.182614272     2.835356368     0.059353389
 C       -0.343895908     4.127349196     0.057942471
 C       -1.723885765     4.335998905    -0.004225874
 C       -2.569354329     3.219593586    -0.063260284
 C       -2.047084839     1.929307295    -0.060124159
 C       -2.320369638     5.667782937    -0.008251597
 C       -1.626967916     6.817674472     0.046073507
 C       -2.226282259     8.148272485     0.041890574
 C       -1.385908332     9.266985113     0.102671939
 C       -1.913714706    10.556755120     0.101158121
 C       -3.296669652    10.756443302     0.042850397
 C       -4.139426363     9.639317188    -0.018661211
 C       -3.608421069     8.351218032    -0.021678327
Si       -4.037254822    12.445368690     0.038661864
 C       -4.864870380    12.744232710    -1.568052791
 C       -4.906310214    11.850321574    -2.565101255
 C       -5.562776761    12.073669570    -3.853379111
 C       -5.529045899    11.048076402    -4.809917853
 C       -6.133476819    11.204291464    -6.045927744
 C       -6.852675526    12.380884854    -6.341480524
 C       -6.891529214    13.407691985    -5.383753827
 C       -6.230666157    13.258841518    -4.169752307
 N       -7.454806403    12.500469599    -7.615531299
 C       -8.265158205    11.349787885    -8.063081555
 C       -8.096070463    13.792413535    -7.914474305
 C       -9.551556269    11.113607312    -7.248667306
 C       -9.384921642     9.985610667    -6.210246822
 N      -10.285511267    10.078942759    -5.039499508
 C       -9.888798210    11.141926297    -4.158763276
 C       -8.909520369    10.820307481    -3.205662430
 C       -8.469240778    11.788551588    -2.315863991
 C       -8.991222302    13.090421275    -2.355563690
 C       -9.974174876    13.395503165    -3.300163909
 C      -10.433078412    12.429741063    -4.190244739
 C      -11.712653950    10.101721678    -5.406956505
 C       -8.493587851    14.079015770    -1.393689048
 C       -8.923271093    15.346057127    -1.345404809
Si       -8.355735137    16.639224947    -0.179746978
 C       -7.650269043    17.998329581    -1.210035478
 C       -6.992538240    17.685565478    -2.407239823
 C       -6.453258957    18.695324387    -3.199193624
 C       -6.551048690    20.038668420    -2.812215594
 C       -7.204811144    20.345795010    -1.615647609
 C       -7.749616683    19.336843778    -0.821284447
 C       -5.970040642    21.061609316    -3.675805434
 C       -5.997721555    22.381299220    -3.423659528
 C       -5.416750950    23.404317862    -4.287171562
 C       -4.762743484    23.098861240    -5.483912741
 C       -4.222011528    24.109144999    -6.278655217
 C       -4.330722935    25.450678629    -5.897111636
 C       -4.986578602    25.759370724    -4.698669311
 C       -5.519638499    24.747924734    -3.903534672
Si       -3.616112103    26.791377417    -6.946616879
 C       -3.587238059    26.258809836    -8.738446073
 C       -4.650327014    28.341170732    -6.792724988
 C       -1.874619793    27.130283214    -6.360332357
 C       -9.828023203    17.231746410     0.802550691
 C       -7.024817439    16.017649288     0.970185070
 C       -5.313800713    12.544305709     1.401211257
 C       -2.741399652    13.764517942     0.294145332
 C       -0.613707791    -0.878863782    -1.531310224
 C       -0.618262914    -0.875145181     1.531298057
 H        1.270407478     2.735504589     0.107792666
 H        0.335603023     4.976587131     0.105431984
 H       -3.647681660     3.360229245    -0.111458422
 H       -2.755824029     1.097634653    -0.106582215
 H       -3.413204996     5.678397282    -0.059697217
 H       -0.534262059     6.807665559     0.098271908
 H       -0.306967420     9.131274337     0.150688623
 H       -1.208816318    11.391556767     0.146596066
 H       -5.229067651     9.734857275    -0.067285084
 H       -4.283058620     7.498425820    -0.071821206
 H       -5.331336549    13.736717486    -1.665529269
 H       -4.438714328    10.856788807    -2.489985601
 H       -5.004700310    10.117943813    -4.586100634
 H       -6.048989667    10.418106286    -6.791512873
 H       -7.443307198    14.324046889    -5.569326185
 H       -6.266967428    14.075046209    -3.445290190
 H       -8.421361500    13.802199297    -8.968616337
 H       -7.350698824    14.600714582    -7.800879901
 H       -8.967268988    14.020916755    -7.279979444
 H      -11.955533223     9.150541598    -5.911415282
 H      -12.011073786    10.930209728    -6.065266132
 H      -12.319464899    10.151260177    -4.485807447
 H       -8.501434721     9.810625727    -3.178585297
 H       -7.697936828    11.534828548    -1.586523563
 H      -10.396343964    14.399731019    -3.346528893
 H      -11.205688850    12.684542401    -4.909277565
 H       -7.732196339    13.678250195    -0.711281763
 H       -9.692380760    15.710973670    -2.047407648
 H       -6.887269370    16.653487025    -2.759833956
 H       -5.949219200    18.435382151    -4.128776446
 H       -7.294774387    21.381386640    -1.292648233
 H       -8.251903267    19.638056790     0.101808556
 H       -5.488827129    20.677172281    -4.580032400
 H       -6.478744339    22.765691605    -2.519293575
 H       -4.668362236    22.063220051    -5.805875561
 H       -3.720816878    23.807473921    -7.202619224
 H       -5.102577846    26.789218654    -4.349745748
 H       -6.024128695    25.007937860    -2.974669627
 H       -8.520873275    11.522139232    -9.134049770
 H       -7.622556128    10.441352781    -8.057368487
 H       -9.842989005    12.050773242    -6.734682551
 H      -10.388734114    10.876183817    -7.927956587
 H       -9.561521741     8.995800852    -6.684812614
 H       -8.338309325     9.969882409    -5.823117257
 H        2.266340454    -1.030874255     0.002735367
 H        2.275272353     0.511966104     0.890439884
 H        2.273594386     0.507123243    -0.894091079
 H       -3.228074113    27.074213898    -9.391360003
 H       -4.596505832    25.974700321    -9.087458779
 H       -2.922270385    25.392033772    -8.897940286
 H       -5.706332039    28.144357623    -7.052333331
 H       -4.629456251    28.748000471    -5.766645092
 H       -4.284708202    29.133896539    -7.469492815
 H       -1.241738266    26.227857742    -6.438369695
 H       -1.396428524    27.926645526    -6.957207466
 H       -1.860980885    27.450440368    -5.302965006
 H      -10.592073032    17.690369862     0.149169080
 H      -10.312594424    16.395219208     1.338702969
 H       -9.538711664    17.984352801     1.556659713
 H       -6.126087862    15.701052369     0.409157684
 H       -6.707114564    16.805407130     1.676936132
 H       -7.378271051    15.158185782     1.567556819
 H       -6.136538618    11.824979241     1.241026545
 H       -4.861117301    12.314539937     2.382542710
 H       -5.758949715    13.552875846     1.468278835
 H       -1.995749860    13.761250192    -0.521819309
 H       -3.192398809    14.773204449     0.320229272
 H       -2.199218142    13.619382664     1.245150541
 H       -0.271270651    -0.367847514    -2.449557432
 H       -0.246047292    -1.919261561    -1.572365150
 H       -1.716893661    -0.913272348    -1.565431181
 H       -0.272085065    -0.366763958     2.449651862
 H       -1.721831566    -0.900960344     1.565583387
 H       -0.258221685    -1.918163780     1.571988069

