139   

Si        0.000000000     0.000000000     0.000000000
 C        1.869279792     0.000000000     0.000000000
 C       -0.643122025     1.730676312     0.000000000
 C        0.117162589     2.779813247    -0.527268999
 C       -0.374878939     4.084763823    -0.524004997
 C       -1.638512211     4.370458641     0.000202004
 C       -2.400796223     3.317669436     0.523490163
 C       -1.911699316     2.013864754     0.522261085
 C       -2.194837094     5.719242770     0.025203355
 C       -1.570571988     6.813910899    -0.441706881
 C       -2.129390680     8.161781454    -0.415422405
 C       -3.394582982     8.442221362     0.110374856
 C       -3.890439628     9.744159688     0.115873509
 C       -3.133043361    10.796546674    -0.414699012
 C       -1.868602173    10.518907301    -0.943362986
 C       -1.372749461     9.216422652    -0.941177736
Si       -3.825286251    12.505620312    -0.388391586
 C       -4.052563266    13.048673434     1.346182983
 C       -3.751860005    12.294988849     2.412220617
 C       -3.928174595    12.715807519     3.802305300
 C       -3.570839610    11.822752595     4.823463112
 C       -3.716115743    12.167523189     6.156724943
 C       -4.286267761    13.407721444     6.511953262
 C       -4.647426356    14.302542362     5.491064287
 C       -4.443332848    13.964296117     4.158233679
 N       -4.416842580    13.721629364     7.884258450
 C       -5.020491467    12.678772768     8.737913835
 C       -4.916348771    15.070484084     8.201010488
 C       -6.509650912    12.400620412     8.455897505
 C       -6.714341749    11.144244821     7.585314075
 N       -7.960540626    11.133321380     6.786933973
 C       -7.882255085    12.051275551     5.684215774
 C       -7.317970300    11.547404609     4.501839382
 C       -7.204100462    12.366351819     3.388445042
 C       -7.643016451    13.698426515     3.429779832
 C       -8.214031373    14.185469953     4.608183961
 C       -8.348612808    13.368975162     5.726529716
 C       -9.175479547    11.284431521     7.607783714
 C       -7.501850935    14.525820128     2.227377665
 C       -7.888230566    15.805935681     2.161990175
Si       -7.750863063    16.910776013     0.708151835
 C       -6.686326976    18.321768607     1.239918709
 C       -5.638746857    18.087375429     2.138719362
 C       -4.819039560    19.133520998     2.557520365
 C       -5.022929527    20.433065603     2.084123573
 C       -6.070123662    20.663230343     1.182349233
 C       -6.893732096    19.620198697     0.763650879
 C       -4.189415682    21.558233339     2.495443535
 C       -3.157342973    21.470213225     3.351681501
 C       -2.321942183    22.593051005     3.765074960
 C       -2.522707169    23.894758452     3.297637614
 C       -1.699549032    24.938335499     3.719683284
 C       -0.649303575    24.700685902     4.612893730
 C       -0.445484578    23.396659536     5.081520763
 C       -1.273954692    22.357744129     4.664808692
Si        0.442158885    26.080669895     5.173349021
 C        0.545493143    27.395320534     3.848244365
 C       -0.286130418    26.809331431     6.732218802
 C        2.161935439    25.434204500     5.518977207
 C       -6.940486040    16.071837934    -0.747326851
 C       -9.462770077    17.490331448     0.243377398
 C       -2.694812423    13.719013833    -1.245298461
 C       -5.490912700    12.488013502    -1.237738915
 C       -0.630106585    -0.859357759    -1.534907967
 C       -0.603017285    -0.899938131     1.523897854
 H        1.112387849     2.618976738    -0.950990098
 H        0.238478478     4.883622260    -0.937305851
 H       -3.388046838     3.518006113     0.935930285
 H       -2.552544321     1.234801498     0.944434127
 H       -3.194124662     5.792906034     0.464615728
 H       -0.571736481     6.740870968    -0.881959835
 H       -4.003405643     7.639882165     0.523398898
 H       -4.885386532     9.902182214     0.544908332
 H       -1.233421967    11.300968401    -1.368415830
 H       -0.385255618     9.020092952    -1.354911813
 H       -4.456455688    14.066904583     1.457805451
 H       -3.338466618    11.278968543     2.322332507
 H       -3.156728642    10.846651051     4.566741029
 H       -3.385053993    11.480290503     6.930804552
 H       -5.099380124    15.261983658     5.723241389
 H       -4.723857351    14.680112877     3.382835310
 H       -4.855237002    15.235304772     9.290145874
 H       -5.954162527    15.253396470     7.879474874
 H       -4.258746560    15.821002296     7.725435290
 H       -9.232390692    10.430642581     8.304750573
 H      -10.060458775    11.233120425     6.949496354
 H       -9.230225520    12.214215795     8.192153911
 H       -6.970762410    10.515171965     4.473730823
 H       -6.754149458    11.971232904     2.476167299
 H       -8.566249836    15.216020942     4.661188760
 H       -8.808230154    13.763052164     6.627892954
 H       -7.048996585    13.992559556     1.381018827
 H       -8.341489075    16.306205251     3.035123177
 H       -5.432039022    17.090657395     2.544545205
 H       -4.012648135    18.927947406     3.260136823
 H       -6.245481909    21.667928019     0.802294401
 H       -7.696226050    19.859521049     0.061150200
 H       -4.463221158    22.518350958     2.048515590
 H       -2.883715257    20.508889231     3.797292149
 H       -3.329098318    24.105114855     2.597312545
 H       -1.907774782    25.934918471     3.320544140
 H        0.359478430    23.150553707     5.779680706
 H       -1.100155664    21.351213738     5.041509427
 H       -4.419671205    11.747631378     8.638118200
 H       -4.889471381    13.001356923     9.796596033
 H       -7.058128228    12.289238790     9.407531705
 H       -6.961908871    13.278201043     7.953707392
 H       -5.863672183    11.027188370     6.872305423
 H       -6.721424119    10.232032966     8.220881965
 H        2.267474013    -1.028236130     0.067184346
 H        2.270103708     0.567527811     0.859372352
 H        2.279407642     0.452348728    -0.919906574
 H        1.248009405    28.197748144     4.135979099
 H       -0.434951335    27.867151109     3.661321846
 H        0.900151219    26.971401191     2.891240489
 H       -1.304855281    27.199128456     6.555998423
 H       -0.358203420    26.052920844     7.534297360
 H        0.329698986    27.642933711     7.113071763
 H        2.583908705    24.928079462     4.631706644
 H        2.849855644    26.254392379     5.791343031
 H        2.168074258    24.708734861     6.351103691
 H       -5.901083384    15.776508551    -0.512444251
 H       -7.496013401    15.166266328    -1.050280112
 H       -6.897865279    16.743799324    -1.623454940
 H       -9.930027389    18.068695580     1.060839978
 H       -9.445143694    18.134391601    -0.653145000
 H      -10.127815507    16.635216895     0.023241789
 H       -1.709989421    13.773896254    -0.746166650
 H       -2.522107934    13.436970741    -2.298768013
 H       -3.120419363    14.739076140    -1.240738895
 H       -6.202855298    11.818478188    -0.723132384
 H       -5.941441983    13.495779217    -1.270480912
 H       -5.397909743    12.131043420    -2.279224175
 H       -0.284984052    -0.348444265    -2.451887591
 H       -0.280157839    -1.905445168    -1.583403664
 H       -1.734478187    -0.874343948    -1.563087981
 H       -0.305618409    -0.367473660     2.445558863
 H       -1.702632663    -0.996592066     1.535282030
 H       -0.181469954    -1.919397609     1.578625046

