139   

Si        0.000000000     0.000000000     0.000000000
 C        1.868937035     0.000000000     0.000000000
 C       -0.584146915     1.751207567     0.000000000
 C       -0.301334356     2.572925493    -1.098073630
 C       -0.731742414     3.898296462    -1.121129683
 C       -1.450892429     4.435098657    -0.048730342
 C       -1.731391699     3.611859175     1.048894887
 C       -1.303997398     2.285819906     1.074064435
 C       -1.920952149     5.816519224    -0.030173391
 C       -1.719975364     6.705374500    -1.017780002
 C       -2.189403124     8.086836521    -1.000505240
 C       -1.908501877     8.906851702    -2.101215954
 C       -2.336148981    10.231963179    -2.129581980
 C       -3.050664212    10.769063341    -1.052403826
 C       -3.331529778     9.953100562     0.048742079
 C       -2.906028048     8.625797147     0.072037428
Si       -3.623637104    12.523387653    -1.076262515
 C       -5.252874972    12.556408366    -0.242790550
 C       -5.584271793    13.245672604     0.856572394
 C       -6.920691239    13.210379400     1.455268016
 C       -7.181338986    13.963927341     2.607964370
 C       -8.433572528    13.955306922     3.202253415
 C       -9.483304621    13.191324524     2.648627330
 C       -9.211146013    12.406068656     1.515533295
 C       -7.938097592    12.388792196     0.961644723
 N      -10.751294581    13.196552223     3.269792295
 C      -11.207739587    14.504813258     3.788547613
 C      -11.815783288    12.449229041     2.576988392
 C      -11.086146892    15.686822090     2.808330159
 C      -12.279976402    15.805352357     1.840555749
 N      -11.925174429    16.203707706     0.458469265
 C      -11.269189082    15.145271834    -0.252398729
 C      -12.103046875    14.156551354    -0.800502053
 C      -11.549901041    13.096974979    -1.503837187
 C      -10.160439931    12.982031693    -1.658636065
 C       -9.341680721    13.982146327    -1.125641450
 C       -9.886768701    15.072230259    -0.454061568
 C      -11.229457103    17.501585795     0.396614276
 C       -9.628004159    11.842002163    -2.411672251
 C       -8.323965358    11.626148095    -2.625300030
Si       -7.611358870    10.216789114    -3.559450573
 C       -6.668389577    10.935117293    -4.971569772
 C       -7.248802047    11.921691756    -5.778222767
 C       -6.538134754    12.465350966    -6.845152958
 C       -5.231116946    12.044183004    -7.125605248
 C       -4.653913745    11.062980274    -6.315010652
 C       -5.364031654    10.513606510    -5.248176243
 C       -4.526608961    12.643237081    -8.254424285
 C       -3.275981006    12.324879085    -8.629211745
 C       -2.568657886    12.921877932    -9.757296251
 C       -3.140005182    13.903574162   -10.571984996
 C       -2.427095120    14.446778765   -11.639999335
 C       -1.120939673    14.024872466   -11.912946731
 C       -0.546470999    13.041926640   -11.098025081
 C       -1.263658314    12.495789963   -10.036151877
Si       -0.185049633    14.750325123   -13.329679695
 C       -0.587043227    16.569453695   -13.485317373
 C        1.654637408    14.556361924   -13.059877496
 C       -0.690824699    13.852824640   -14.888514413
 C       -6.509266700     9.234947040    -2.418619603
 C       -8.943492151     9.099552478    -4.241063657
 C       -2.364105762    13.588569417    -0.204910452
 C       -3.861624300    13.113927668    -2.831691792
 C       -0.641920480    -0.852321490    -1.534473952
 C       -0.619625829    -0.908004696     1.511611942
 H        0.257674669     2.210606656    -1.965541171
 H       -0.500472574     4.516240568    -1.986969104
 H       -2.290056616     4.009218123     1.894528962
 H       -1.553486603     1.691629251     1.957336130
 H       -2.470421047     6.100813870     0.872318616
 H       -1.169986588     6.420588062    -1.919513212
 H       -1.352069205     8.505758493    -2.945932220
 H       -2.093031113    10.823449319    -3.017046581
 H       -3.891821322    10.320382663     0.915332009
 H       -3.138117407     8.009091830     0.938442155
 H       -5.994523459    11.909522788    -0.742656786
 H       -4.881371134    13.896758315     1.389061782
 H       -6.390326878    14.573528699     3.044736763
 H       -8.601295294    14.533516364     4.106269828
 H       -9.985603585    11.797763034     1.056020878
 H       -7.750655300    11.735383611     0.105493056
 H      -12.750365726    12.504530732     3.158383280
 H      -11.532146831    11.381739377     2.529258398
 H      -12.015636985    12.807622973     1.551904150
 H      -11.912418704    18.279521624     0.779670261
 H      -11.012066094    17.744619951    -0.658449436
 H      -10.290379060    17.552315600     0.967759503
 H      -13.181447840    14.242000052    -0.680290655
 H      -12.206778474    12.344242920    -1.938412187
 H       -8.256832340    13.926949941    -1.245634205
 H       -9.227780341    15.843069514    -0.063058183
 H      -10.410246300    11.166933647    -2.781588204
 H       -7.563412509    12.333130560    -2.249989427
 H       -8.261989770    12.295488047    -5.599570825
 H       -7.004422221    13.228984150    -7.464920576
 H       -3.640408886    10.718328074    -6.511416792
 H       -4.859340633     9.750232212    -4.647312775
 H       -5.097750111    13.398105499    -8.802779586
 H       -2.705719245    11.568712687    -8.081391959
 H       -4.152890429    14.252328100   -10.377985605
 H       -2.928547631    15.209217487   -12.242743710
 H        0.469766684    12.673487276   -11.262771261
 H       -0.800499931    11.730413179    -9.416145634
 H      -12.255649221    14.403175703     4.144962525
 H      -10.601534223    14.717275700     4.701941748
 H      -10.975005840    16.625743608     3.380406507
 H      -10.143285511    15.588953447     2.229768070
 H      -12.834068719    14.842589348     1.781596886
 H      -13.008124216    16.556740515     2.219134660
 H        2.271699253    -1.028030621    -0.008209785
 H        2.268826052     0.507972813     0.896455135
 H        2.273744520     0.524782817    -0.883512744
 H        0.009448682    17.043695811   -14.284822335
 H       -0.370224644    17.108198097   -12.544957855
 H       -1.651881426    16.734833254   -13.725201916
 H        1.968908508    15.008115843   -12.101614809
 H        1.956421709    13.494417361   -13.044405410
 H        2.229644781    15.050274357   -13.863444321
 H       -1.775514067    13.949607316   -15.074859198
 H       -0.162689267    14.251536982   -15.772391128
 H       -0.464008903    12.773394367   -14.822164651
 H       -5.603036191     9.793919009    -2.121963382
 H       -7.038573175     8.955204110    -1.489110135
 H       -6.167178568     8.298528762    -2.895432669
 H       -9.629160097     9.647166898    -4.911776135
 H       -8.507212825     8.270411575    -4.827225553
 H       -9.548710417     8.650863319    -3.433757023
 H       -2.212311196    13.262859216     0.839931347
 H       -1.381629436    13.542153749    -0.708093840
 H       -2.676675644    14.647712478    -0.184429694
 H       -4.468599886    12.404363441    -3.426522900
 H       -4.382860240    14.088295642    -2.860977810
 H       -2.898073292    13.240032974    -3.355234174
 H       -0.281706516    -0.359661006    -2.454727800
 H       -0.318691234    -1.907517171    -1.572944628
 H       -1.746718050    -0.841032896    -1.564827487
 H       -0.235811240    -0.455292430     2.443139395
 H       -1.723057816    -0.901547390     1.563428849
 H       -0.296260490    -1.964407143     1.501514771

