139   

Si        0.000000000     0.000000000     0.000000000
 C        1.869116269     0.000000000     0.000000000
 C       -0.601323284     1.744225826     0.000000000
 C       -0.104952506     2.645139673    -0.949632662
 C       -0.544156293     3.967427702    -0.969233561
 C       -1.475456681     4.424747919    -0.032072304
 C       -1.969932627     3.522427714     0.917807101
 C       -1.543820785     2.195967306     0.930277949
 C       -1.961489292     5.799442957    -0.016817187
 C       -1.576046304     6.753222401    -0.881453145
 C       -2.064322306     8.127529602    -0.863319262
 C       -2.996088318     8.577661419     0.077404198
 C       -3.437134061     9.897831582     0.060917476
 C       -2.983937067    10.789628288    -0.919921053
 C       -2.064191139    10.338143802    -1.870586762
 C       -1.607873980     9.021230658    -1.839654160
Si       -3.611219988    12.523972178    -0.879781776
 C       -2.979157571    13.316555135     0.648438681
 C       -2.200805280    12.692008305     1.541929471
 C       -1.687237621    13.308645889     2.766755041
 C       -0.879929792    12.538874013     3.618148896
 C       -0.368280989    13.074522510     4.789806078
 C       -0.698819236    14.390276666     5.163125722
 C       -1.514775763    15.159270863     4.324245720
 C       -1.991474260    14.621420569     3.133173690
 N       -0.136253907    14.878063266     6.382573221
 C       -0.688322883    14.203420489     7.579975694
 C       -0.128116760    16.345787979     6.521736353
 C       -2.221687952    14.282554854     7.724477824
 C       -2.912000033    13.035143249     7.132743871
 N       -4.250557622    13.392882312     6.628553478
 C       -4.795488166    12.655159036     5.565436062
 C       -4.038740144    11.735255437     4.811597559
 C       -4.618989395    11.028070909     3.769446413
 C       -5.956976516    11.232706577     3.407976798
 C       -6.699430379    12.168189736     4.136069927
 C       -6.137072885    12.877459253     5.186556675
 C       -5.195207225    13.773748481     7.694243485
 C       -6.529162183    10.464387117     2.301369538
 C       -7.795576243    10.588840090     1.882217861
Si       -8.577655445     9.665259530     0.510483643
 C       -7.392418936     8.490173407    -0.274830109
 C       -6.678342007     8.855698541    -1.420904094
 C       -5.782934569     7.966432716    -2.013225931
 C       -5.580953307     6.692458758    -1.475514325
 C       -6.293126123     6.329105917    -0.325127329
 C       -7.184199606     7.217509713     0.271593538
 C       -4.654317103     5.730704124    -2.062555038
 C       -3.915654716     5.959063428    -3.161547425
 C       -2.988335294     4.999419453    -3.750809259
 C       -2.778447845     3.725814139    -3.214214532
 C       -1.882269658     2.839904801    -3.810011961
 C       -1.166901077     3.213345627    -4.953736454
 C       -1.369855950     4.490524223    -5.488651612
 C       -2.267934836     5.372830503    -4.892326288
Si        0.014206216     2.024832939    -5.726014071
 C       -0.850510457     0.385547565    -5.971689850
 C        0.613982935     2.661903975    -7.377464059
 C        1.473531445     1.802420232    -4.577608816
 C      -10.042209760     8.719326886     1.185970784
 C       -9.174777097    10.907104057    -0.755119389
 C       -3.023808246    13.488491741    -2.366771370
 C       -5.475668052    12.521286458    -0.814363644
 C       -0.635231528    -0.831681627    -1.550153291
 C       -0.620805010    -0.920362262     1.502829198
 H        0.632447076     2.351345290    -1.702620192
 H       -0.154761372     4.645027913    -1.728593420
 H       -2.697413726     3.857663090     1.654390386
 H       -1.968571873     1.536703558     1.691071781
 H       -2.688625908     6.020849158     0.769721970
 H       -0.856040093     6.530508306    -1.674804472
 H       -3.383378907     7.895714294     0.832701807
 H       -4.159538349    10.198665228     0.828684832
 H       -1.678153245    10.989917896    -2.657649662
 H       -0.890032241     8.685766449    -2.585382476
 H       -3.294916965    14.360449979     0.789409648
 H       -1.877117597    11.647286566     1.420419688
 H       -0.633007189    11.512110500     3.345688655
 H        0.295373600    12.487819665     5.420880481
 H       -1.798936902    16.170252250     4.600484431
 H       -2.628021860    15.232938358     2.493146239
 H        0.510859285    16.613148331     7.380966668
 H       -1.120449525    16.798035288     6.672231511
 H        0.333073112    16.793915425     5.624094373
 H       -4.663551457    14.124572702     8.591834915
 H       -5.857653230    12.944312062     7.994088086
 H       -5.817813034    14.615023285     7.337778033
 H       -2.989169069    11.563411589     5.039084837
 H       -4.012046020    10.309619064     3.215505393
 H       -7.741083951    12.356678003     3.873613655
 H       -6.740962211    13.611155273     5.710507063
 H       -5.822041034     9.757032181     1.845156382
 H       -8.484111046    11.300665318     2.365873704
 H       -6.790969669     9.838152975    -1.888304811
 H       -5.233438762     8.278354734    -2.899965944
 H       -6.148643380     5.341772638     0.109080019
 H       -7.708030085     6.879936589     1.169879613
 H       -4.587015310     4.774826455    -1.534392856
 H       -3.976663584     6.918145710    -3.684373346
 H       -3.314290434     3.414782470    -2.317822218
 H       -1.761974057     1.858342921    -3.340926888
 H       -0.839921058     4.836620481    -6.379414967
 H       -2.411555458     6.362204954    -5.322144688
 H       -0.350698975    13.142980837     7.550610808
 H       -0.199426075    14.648930722     8.474411224
 H       -2.493285559    14.404657106     8.786410188
 H       -2.603986865    15.188263631     7.209269569
 H       -2.294471387    12.654603294     6.283512710
 H       -2.960780124    12.220899403     7.886484050
 H        2.270530879    -1.028404137     0.013283587
 H        2.268070264     0.523716197     0.887756396
 H        2.277959479     0.506124411    -0.892256994
 H       -0.180685920    -0.356715074    -6.439374864
 H       -1.733458640     0.496308993    -6.627191938
 H       -1.202668949    -0.037769852    -5.014373055
 H       -0.228059221     2.847631266    -8.067986658
 H        1.175039973     3.606902627    -7.270750864
 H        1.285628474     1.933719681    -7.865914078
 H        1.169049260     1.342477733    -3.620765658
 H        2.241495907     1.150833470    -5.029778882
 H        1.952174941     2.770778604    -4.345436599
 H       -9.745749359     8.043029803     2.007122705
 H      -10.814008142     9.401434751     1.583315667
 H      -10.514180105     8.103353009     0.399694735
 H       -8.359059553    11.576331180    -1.083904777
 H       -9.578215202    10.401314798    -1.650171180
 H       -9.976923025    11.544203051    -0.343396934
 H       -1.920823804    13.539974555    -2.405564599
 H       -3.371209076    13.027242689    -3.307960285
 H       -3.399376033    14.526809977    -2.348105543
 H       -5.836741253    12.066294452     0.129901777
 H       -5.884807345    13.545358409    -0.858196493
 H       -5.908354970    11.948215112    -1.652404720
 H       -0.270557821    -0.323880182    -2.460954226
 H       -0.309570969    -1.885088603    -1.602454641
 H       -1.739676271    -0.821438607    -1.584731886
 H       -0.291621399    -0.433724487     2.438415912
 H       -1.723623112    -0.973140746     1.521854067
 H       -0.241480319    -1.957709845     1.520277248

