139   

Si        0.000000000     0.000000000     0.000000000
 C        1.869399334     0.000000000     0.000000000
 C       -0.640893938     1.731748083     0.000000000
 C        0.149642242     2.792644397    -0.453496636
 C       -0.342985241     4.097403345    -0.449757300
 C       -1.637230203     4.371078285     0.000693319
 C       -2.429744659     3.306477942     0.450142435
 C       -1.940010276     2.002964551     0.448775359
 C       -2.194355377     5.719722140     0.022655250
 C       -1.540635710     6.823216543    -0.378328037
 C       -2.096525766     8.172231804    -0.356884344
 C       -3.391476311     8.447219335     0.093649327
 C       -3.882179861     9.751483609     0.096731327
 C       -3.088834023    10.811488376    -0.359976088
 C       -1.793746859    10.539106021    -0.813183305
 C       -1.304020702     9.234557456    -0.809173127
Si       -3.769191757    12.526024311    -0.342328103
 C       -4.114911225    13.036218104     1.383397850
 C       -3.901130295    12.269710428     2.460911620
 C       -4.179990135    12.684579148     3.836999974
 C       -3.910317889    11.784136765     4.880186205
 C       -4.155398214    12.125776848     6.198825039
 C       -4.647846071    13.408888649     6.520878963
 C       -4.920719557    14.310647656     5.479658418
 C       -4.706409408    13.937194208     4.157018175
 N       -4.881924701    13.709475274     7.880647649
 C       -3.752948687    13.444676986     8.801970895
 C       -5.585949925    14.969711942     8.167185445
 C       -2.347750736    13.708086440     8.237307371
 C       -2.142762864    15.164929116     7.784952123
 N       -0.996700183    15.329997541     6.871362891
 C        0.269617774    14.973904244     7.371787817
 C        0.572797313    15.190517772     8.733524993
 C        1.815047467    14.844896252     9.239676771
 C        2.816595444    14.320071514     8.409962323
 C        2.525636462    14.137123555     7.055529738
 C        1.280156201    14.463378447     6.534762311
 C       -1.305529197    14.913683266     5.491875226
 C        4.110370333    13.972361070     8.998684633
 C        5.142347738    13.464887303     8.311181260
Si        6.764581677    13.026914318     9.039375233
 C        6.754961322    13.390216385    10.848739515
 C        6.620825575    14.714749194    11.283809720
 C        6.610602288    15.015984214    12.644330342
 C        6.727188507    14.002811114    13.601056282
 C        6.857462666    12.678849903    13.163640610
 C        6.870919619    12.374679867    11.803810979
 C        6.721347770    14.271531963    15.035432099
 C        6.603425843    15.492571169    15.584175907
 C        6.597491139    15.762167086    17.018327193
 C        6.716739311    14.751268967    17.976239620
 C        6.706220644    15.054347049    19.337231252
 C        6.585144651    16.379000879    19.771465250
 C        6.466906417    17.393498792    18.813515160
 C        6.470018994    17.087299710    17.454825334
Si        6.571596854    16.776483726    21.574544433
 C        7.664718809    15.574277371    22.499100953
 C        7.206723293    18.512096635    21.856289836
 C        4.813657676    16.638945888    22.192947350
 C        7.082833314    11.212634635     8.724393437
 C        8.099443557    14.046684032     8.220555796
 C       -2.552648046    13.736857441    -1.080461327
 C       -5.360094282    12.560498831    -1.320753400
 C       -0.630853563    -0.860804466    -1.533534437
 C       -0.604957019    -0.894163817     1.526222230
 H        1.169492865     2.641738665    -0.818155197
 H        0.294367677     4.905511685    -0.804574796
 H       -3.441059825     3.497418764     0.804735904
 H       -2.604691282     1.213951038     0.811457811
 H       -3.219186042     5.785085203     0.400031246
 H       -0.516101163     6.756822539    -0.756313524
 H       -4.028591487     7.639162585     0.448844817
 H       -4.902095753     9.905141929     0.463659043
 H       -1.129778929    11.326714502    -1.179652095
 H       -0.293104066     9.042571064    -1.163976537
 H       -4.525650032    14.053112251     1.476266150
 H       -3.488640333    11.252012923     2.392646733
 H       -3.512093011    10.794723311     4.648690494
 H       -3.976905808    11.403714696     6.992417055
 H       -5.303003655    15.304365745     5.689833311
 H       -4.941828334    14.647724646     3.363640410
 H       -5.889454897    14.976205843     9.229202185
 H       -6.517366337    15.012351689     7.573987099
 H       -4.996036754    15.877672423     7.967200049
 H       -2.341190292    15.195207562     5.230355393
 H       -1.205598303    13.828397787     5.323693960
 H       -0.638655201    15.451479815     4.794667712
 H       -0.168863739    15.626338566     9.396311936
 H        2.019772124    14.998255977    10.300223692
 H        3.286635912    13.731458501     6.387502773
 H        1.097805667    14.305090091     5.476404007
 H        4.158008159    14.167749930    10.080315260
 H        5.070451204    13.274647876     7.229604990
 H        6.522694911    15.549289579    10.582137842
 H        6.509208287    16.053437662    12.957888177
 H        6.949079652    11.875000332    13.891557923
 H        6.974165579    11.323209199    11.522335883
 H        6.822812741    13.384249096    15.667336725
 H        6.502404565    16.379745007    14.951926199
 H        6.818075320    13.713126095    17.664764599
 H        6.800098531    14.220143662    20.038146643
 H        6.370502947    18.446276280    19.092951290
 H        6.374961773    17.889980317    16.725736061
 H       -3.899197939    14.028605893     9.736661479
 H       -3.831513601    12.369082452     9.095154578
 H       -1.588667465    13.441029713     8.999084275
 H       -2.147038676    13.025476865     7.386130617
 H       -3.049472093    15.544932364     7.261291956
 H       -1.999238039    15.833456519     8.662401251
 H        2.267873307    -1.027592119     0.075496142
 H        2.270413495     0.574221274     0.854751660
 H        2.278929241     0.444395118    -0.924086621
 H        7.728837354    15.835229161    23.570453292
 H        8.693209804    15.577286217    22.094523860
 H        7.284125723    14.540069007    22.433603716
 H        8.215293277    18.643894734    21.424181403
 H        6.545877545    19.269513817    21.399753648
 H        7.275416467    18.741719333    22.934582669
 H        4.413738951    15.619764641    22.044642063
 H        4.746122083    16.871153764    23.270253432
 H        4.143616071    17.335740545    21.657917222
 H        6.285194541    10.582577235     9.158231869
 H        7.120211150    10.994677532     7.642074575
 H        8.044350705    10.889660891     9.160903385
 H        7.917421433    15.128830153     8.349515999
 H        9.091919967    13.823662156     8.651800003
 H        8.152950129    13.846190871     7.136132157
 H       -1.610459525    13.764396613    -0.503449821
 H       -2.302351014    13.471664334    -2.123100081
 H       -2.962736683    14.762531522    -1.089454069
 H       -6.116323720    11.881267843    -0.887342477
 H       -5.798929110    13.573395076    -1.345452619
 H       -5.191127532    12.243580578    -2.365941302
 H       -0.284377576    -0.351965525    -2.451243469
 H       -0.282317861    -1.907490638    -1.580311233
 H       -1.735173744    -0.874292636    -1.562487927
 H       -0.300896728    -0.362982800     2.446574433
 H       -1.705361450    -0.981380479     1.541299507
 H       -0.191454304    -1.916863431     1.580941798

