139   

Si        0.000000000     0.000000000     0.000000000
 C        1.870331964     0.000000000     0.000000000
 C       -0.649331735     1.728750771     0.000000000
 C        0.191357519     2.837260028    -0.135627833
 C       -0.332263569     4.130788027    -0.131553530
 C       -1.703265850     4.344091324     0.029609390
 C       -2.545107426     3.231653228     0.165450348
 C       -2.027978335     1.940014457     0.140586705
 C       -2.302570722     5.673830805     0.041421593
 C       -1.625711072     6.826373962    -0.097793377
 C       -2.238352334     8.151232629    -0.084083614
 C       -1.416095306     9.275258863    -0.240110632
 C       -1.955123151    10.558771716    -0.233636642
 C       -3.336277074    10.750751975    -0.095853634
 C       -4.158296356     9.630771351     0.061773193
 C       -3.612249925     8.347504727     0.081276035
Si       -4.040261046    12.455319939    -0.088504722
 C       -4.542514711    13.005743189    -1.759065696
 C       -4.451157103    12.327232503    -2.911233137
 C       -4.887436035    12.869130287    -4.201802930
 C       -4.756953174    12.092597844    -5.362653804
 C       -5.159751798    12.575411594    -6.598234920
 C       -5.749739975    13.851378190    -6.715567703
 C       -5.878351720    14.632702605    -5.551302684
 C       -5.433015242    14.149617529    -4.327595362
 N       -6.157167538    14.337396011    -7.972324007
 C       -6.666961313    13.374379771    -8.960350733
 C       -6.891800920    15.613166774    -7.990349355
 C       -8.035634821    12.781280520    -8.583819095
 C       -8.591304622    11.841967717    -9.669020467
 N       -7.729721267    10.696615875   -10.040961927
 C       -7.019882588    10.113441336    -8.964889942
 C       -7.752802392     9.738316903    -7.819263951
 C       -7.106328674     9.163843552    -6.739129864
 C       -5.727855876     8.901563876    -6.778364646
 C       -5.012293427     9.247194700    -7.925556320
 C       -5.644351014     9.840359406    -9.013632646
 C       -6.973026271    10.920909257   -11.283666414
 C       -5.100335462     8.292763641    -5.605390792
 C       -3.798148521     7.992672038    -5.515130882
Si       -3.035579068     7.230424933    -4.035151315
 C       -2.255104867     5.603841317    -4.402207259
 C       -2.618395033     4.844039418    -5.519026581
 C       -2.005182579     3.617074628    -5.764102584
 C       -1.036159583     3.111037031    -4.887999904
 C       -0.685459206     3.867172004    -3.766012078
 C       -1.288195689     5.099815392    -3.524365512
 C       -0.421003793     1.821815542    -5.185317049
 C        0.525446278     1.236617574    -4.431627360
 C        1.141603039    -0.052489290    -4.727512071
 C        0.796487427    -0.814349518    -5.847020515
 C        1.411220837    -2.041994981    -6.091568015
 C        2.397441181    -2.529472825    -5.227658362
 C        2.752522186    -1.763590303    -4.110001027
 C        2.133481440    -0.540535280    -3.866497666
Si        3.214814159    -4.153588113    -5.545859822
 C        3.191109243    -4.540775292    -7.374541829
 C        4.990096089    -4.098260849    -4.961760631
 C        2.279568390    -5.471840193    -4.607553187
 C       -1.741584242     8.438542783    -3.442135238
 C       -4.343334591     6.926900357    -2.737750465
 C       -5.548340463    12.499979482     1.017889062
 C       -2.766240717    13.660263195     0.562931931
 C       -0.627691369    -0.866305396    -1.528856620
 C       -0.610317886    -0.879027312     1.532701345
 H        1.273316693     2.732387767    -0.250660564
 H        0.342964571     4.976692478    -0.245110287
 H       -3.617665480     3.376277816     0.282176644
 H       -2.735607232     1.111353681     0.235937366
 H       -3.387691050     5.680666547     0.187672677
 H       -0.540417949     6.823407841    -0.232277599
 H       -0.341819382     9.147555566    -0.359717899
 H       -1.261893227    11.397125808    -0.349183555
 H       -5.242189305     9.718999045     0.178088935
 H       -4.272753292     7.494925596     0.229703830
 H       -4.961376812    14.027135603    -1.743943713
 H       -4.043562768    11.309678245    -2.975472417
 H       -4.333266512    11.086459943    -5.298464625
 H       -5.030689456    11.947114822    -7.477863595
 H       -6.319964627    15.622357455    -5.589521608
 H       -5.532960139    14.786684999    -3.447580540
 H       -7.156872925    15.881883382    -9.026216128
 H       -6.230531831    16.414519337    -7.611664641
 H       -7.815616374    15.598033426    -7.389480307
 H       -7.677900204    11.193918867   -12.088247384
 H       -6.493091207     9.975005396   -11.594231690
 H       -6.202505318    11.703936719   -11.212278757
 H       -8.826995267     9.901898079    -7.788394055
 H       -7.680735169     8.902404905    -5.849765388
 H       -3.939908461     9.052537266    -7.978991213
 H       -5.054218497    10.100187847    -9.886597435
 H       -5.813081535     8.100789269    -4.790990459
 H       -3.101043275     8.195446596    -6.341777637
 H       -3.376287860     5.186924415    -6.229504409
 H       -2.290513738     3.044125311    -6.644036757
 H        0.053289763     3.491113489    -3.058781214
 H       -0.979666554     5.639301370    -2.622385565
 H       -0.790506793     1.337237340    -6.093582482
 H        0.894118201     1.724916521    -3.524120925
 H        0.036371853    -0.455506399    -6.538770022
 H        1.094795932    -2.593879145    -6.980841271
 H        3.518021452    -2.091809192    -3.401827258
 H        2.430550876     0.044350331    -2.997437546
 H       -6.722520042    13.887241112    -9.946612339
 H       -5.913910811    12.560237250    -9.081373874
 H       -7.943687230    12.244035165    -7.616516822
 H       -8.765295550    13.591187623    -8.398911916
 H       -9.557414684    11.407868361    -9.313192035
 H       -8.837295756    12.424920473   -10.582663634
 H        2.264969383    -1.031478972    -0.031708051
 H        2.271554020     0.478843434     0.910644422
 H        2.281731000     0.539548801    -0.870722974
 H        3.731844321    -5.479360779    -7.590651941
 H        3.673968633    -3.737262076    -7.959771063
 H        2.161484542    -4.658626439    -7.755156170
 H        5.543038987    -3.271293249    -5.443135876
 H        5.058351169    -3.953401745    -3.869582730
 H        5.519306526    -5.036903023    -5.204224621
 H        1.225374856    -5.525578755    -4.933964209
 H        2.727825897    -6.469167853    -4.760314354
 H        2.277934028    -5.268248285    -3.521741718
 H       -1.028412308     8.693371620    -4.245350981
 H       -2.204502529     9.380860274    -3.092088315
 H       -1.161980811     8.027415590    -2.596460624
 H       -5.168979356     6.311138921    -3.135405030
 H       -3.915425182     6.383860248    -1.875558608
 H       -4.768215581     7.875810607    -2.363087218
 H       -6.367343350    11.878869723     0.614024490
 H       -5.311011620    12.126210267     2.029828795
 H       -5.937481761    13.527745725     1.125025723
 H       -1.910166877    13.760057345    -0.128015147
 H       -3.198875272    14.667535696     0.696266934
 H       -2.372662579    13.334656398     1.542172434
 H       -0.279585699    -0.364164195    -2.453339367
 H       -0.277148028    -1.912483378    -1.576178035
 H       -1.731387421    -0.880048120    -1.565464753
 H       -0.268275720    -0.369105004     2.450975299
 H       -1.713129732    -0.917822597     1.568398301
 H       -0.240415721    -1.918701793     1.571926008

