139   

Si        0.000000000     0.000000000     0.000000000
 C        1.869323664     0.000000000     0.000000000
 C       -0.620255686     1.738903708     0.000000000
 C       -0.016188102     2.697885918     0.821646576
 C       -0.474694904     4.014241492     0.831224215
 C       -1.551489964     4.401701482     0.028210341
 C       -2.157594580     3.439750869    -0.789655917
 C       -1.698955602     2.124340415    -0.804298515
 C       -2.065012080     5.767363063     0.005769833
 C       -1.572705563     6.782052837     0.736764125
 C       -2.087638134     8.147193695     0.712957863
 C       -3.164192921     8.530764122    -0.091037894
 C       -3.624384206     9.847085207    -0.082912022
 C       -3.020160134    10.805424275     0.736958150
 C       -1.941538734    10.425025189     1.545103448
 C       -1.480621165     9.111277921     1.529621883
Si       -3.622690203    12.547745578     0.753426903
 C       -2.166269801    13.618120681     0.435726539
 C       -1.698326136    14.562843829     1.261357359
 C       -0.529796395    15.401441303     0.975271707
 C       -0.139913266    16.357989771     1.924772881
 C        0.957600933    17.175864720     1.702769605
 C        1.706150774    17.039508955     0.521395309
 C        1.346325515    16.064676062    -0.414994438
 C        0.252873219    15.238687658    -0.171573589
 N        2.823577427    17.924842190     0.373435861
 C        2.408870215    19.277751155    -0.064871313
 C        3.932989758    17.377937408    -0.427928099
 C        1.956007122    19.372569235    -1.535152706
 C        0.760617170    20.320532013    -1.748472220
 N       -0.574310499    19.728997195    -1.507820712
 C       -0.806097386    18.480125785    -2.126261966
 C       -0.359736267    18.267036515    -3.447904600
 C       -0.575889337    17.049746241    -4.075165069
 C       -1.245098139    16.006435954    -3.421539205
 C       -1.723603148    16.237999405    -2.128751463
 C       -1.546637829    17.462956841    -1.500233674
 C       -1.011595364    19.847202828    -0.105386097
 C       -1.455317940    14.733990859    -4.115932523
 C       -2.084574949    13.690186889    -3.561117741
Si       -2.406555526    12.058012384    -4.323011025
 C       -4.239608822    11.842326816    -4.342958917
 C       -5.066707402    12.907189517    -4.721760382
 C       -6.450225467    12.752173488    -4.739290291
 C       -7.040228260    11.535445505    -4.371047510
 C       -6.211727222    10.476522507    -3.989797247
 C       -4.825531749    10.627018520    -3.975880193
 C       -8.494525501    11.421191257    -4.405373958
 C       -9.180861831    10.312085379    -4.082027052
 C      -10.634944709    10.194671580    -4.115326312
 C      -11.468469573    11.250887930    -4.495951192
 C      -12.853316781    11.094609138    -4.513359598
 C      -13.437183809     9.875234066    -4.148589925
 C      -12.605275099     8.816810570    -3.767421410
 C      -11.221052132     8.975769488    -3.751901808
Si      -15.274557998     9.698928905    -4.181700532
 C      -16.019960062    10.970595791    -3.032523243
 C      -15.871109424     9.986439839    -5.929398626
 C      -15.789149600     7.990005898    -3.626691050
 C       -1.759801594    11.950252506    -6.069322972
 C       -1.596096089    10.755862001    -3.257540767
 C       -4.895930990    12.854793167    -0.574463574
 C       -4.382858195    12.898926749     2.423023421
 C       -0.607467084    -0.911554006    -1.514750770
 C       -0.635170509    -0.849212778     1.538699700
 H        0.827581870     2.454876751     1.473755371
 H        0.015448171     4.742300700     1.475435931
 H       -2.997472842     3.719533604    -1.422894211
 H       -2.210676685     1.419033499    -1.464748061
 H       -2.911399038     5.926249450    -0.668992443
 H       -0.726963938     6.623317244     1.412347075
 H       -3.653486633     7.801282202    -0.733623615
 H       -4.467928124    10.089548989    -0.737485795
 H       -1.427636695    11.135789116     2.199766855
 H       -0.638684252     8.832106858     2.160506190
 H       -1.662821913    13.401926122    -0.522553828
 H       -2.167940278    14.793625635     2.226152338
 H       -0.709217204    16.467516438     2.847239181
 H        1.261355036    17.912311014     2.444447550
 H        1.914744904    15.941118172    -1.333166799
 H        0.000959735    14.469171799    -0.905117834
 H        4.809568156    18.036944334    -0.302699826
 H        3.723803453    17.279673723    -1.503659379
 H        4.208464246    16.384534874    -0.031892798
 H       -0.787007313    20.857482859     0.273017040
 H       -0.547738169    19.106094099     0.568980616
 H       -2.109690911    19.726401028    -0.061669977
 H        0.152771569    19.061795413    -3.982104000
 H       -0.218552664    16.906822311    -5.094898498
 H       -2.276204954    15.456876400    -1.599278718
 H       -1.950443108    17.597523657    -0.500396894
 H       -1.043401855    14.713874225    -5.131356788
 H       -2.489728498    13.761753460    -2.536453801
 H       -4.660849681    13.882917979    -5.008730170
 H       -7.078754678    13.588495120    -5.039734448
 H       -6.645003808     9.521376826    -3.699366022
 H       -4.228104740     9.763476658    -3.668941763
 H       -9.018098678    12.327453816    -4.723688799
 H       -8.656940470     9.405408356    -3.764865268
 H      -11.038496748    12.208773664    -4.783659719
 H      -13.452865677    11.956222960    -4.820827530
 H      -13.004815648     7.842526805    -3.473142387
 H      -10.591023149     8.140064956    -3.452717041
 H        1.599854423    19.620481268     0.617312376
 H        3.271738568    19.956938415     0.115559543
 H        2.801326653    19.703816257    -2.165194032
 H        1.694957267    18.361336872    -1.912640578
 H        0.869290803    21.229230785    -1.117764565
 H        0.763196969    20.687220253    -2.803173146
 H        2.269188029    -1.028666667    -0.041265813
 H        2.279038942     0.478817552     0.906517958
 H        2.268458402     0.547256415    -0.873415043
 H      -17.122720966    10.914683937    -3.031574094
 H      -15.737949420    11.997373927    -3.325424134
 H      -15.677455476    10.818758838    -1.992714425
 H      -15.592289788    10.991156081    -6.293371325
 H      -15.433020671     9.249998325    -6.627449883
 H      -16.969602809     9.898929664    -5.999077610
 H      -15.447085892     7.777849397    -2.598000440
 H      -16.888745764     7.882879579    -3.636792407
 H      -15.375889806     7.207222575    -4.287330646
 H       -2.219958431    12.715828885    -6.719575104
 H       -0.665295275    12.094409751    -6.104216006
 H       -1.978922565    10.964938659    -6.518678015
 H       -2.058329340    10.697380320    -2.253355717
 H       -1.669052938     9.752695729    -3.712532452
 H       -0.522448631    10.972128773    -3.107274088
 H       -4.562396699    12.509167975    -1.570074540
 H       -5.843665260    12.331042529    -0.353237322
 H       -5.130203185    13.931435209    -0.667150141
 H       -3.656901052    12.746747585     3.241185287
 H       -4.753124052    13.937152522     2.489372033
 H       -5.240038554    12.229192277     2.618575155
 H       -0.310980568    -0.390685865    -2.443027628
 H       -0.187786915    -1.932482842    -1.560204265
 H       -1.707435315    -1.007700857    -1.520370374
 H       -0.288825594    -0.336710883     2.454053891
 H       -1.739855957    -0.858128889     1.565174162
 H       -0.291434232    -1.897139075     1.591510508

