139   

Si        0.000000000     0.000000000     0.000000000
 C        1.869563540     0.000000000     0.000000000
 C       -0.628112575     1.735985255     0.000000000
 C        0.053646912     2.732430491    -0.707708268
 C       -0.414222954     4.045734284    -0.712670678
 C       -1.576476608     4.393047295    -0.017866255
 C       -2.260113081     3.393334027     0.686019172
 C       -1.793723679     2.080773801     0.694855415
 C       -2.102693163     5.754146298     0.004686986
 C       -1.541354817     6.800094987    -0.625295785
 C       -2.064140255     8.162381339    -0.605330428
 C       -3.225930080     8.513933485     0.088134787
 C       -3.689813048     9.828888988     0.080099315
 C       -2.995116952    10.822378424    -0.617432391
 C       -1.830849658    10.474104584    -1.313022022
 C       -1.374198400     9.158530414    -1.308610533
Si       -3.602994496    12.564608755    -0.632535998
 C       -2.190264232    13.660055953    -1.026027264
 C       -2.099448140    14.488305940    -2.074882373
 C       -0.940474724    15.343866065    -2.339452779
 C       -0.952058472    16.174160844    -3.469791959
 C        0.120275141    17.000364986    -3.761319221
 C        1.229974815    17.067094989    -2.893737678
 C        1.242028050    16.238440368    -1.758657163
 C        0.180091503    15.377100468    -1.506531611
 N        2.309237299    17.920107001    -3.218995117
 C        1.949179472    19.254141410    -3.735560547
 C        3.423958615    17.969317355    -2.257809242
 C        1.128201436    20.094432514    -2.742137175
 C        0.727184372    21.464485589    -3.315396002
 N       -0.079481152    21.435916230    -4.554386740
 C       -1.078921661    20.439199488    -4.609623717
 C       -1.966819961    20.323944062    -3.518727184
 C       -2.961867154    19.361662923    -3.529239539
 C       -3.129885460    18.505897222    -4.629090259
 C       -2.266746415    18.642929371    -5.718157782
 C       -1.260186554    19.602509805    -5.722718721
 C        0.715208417    21.645222640    -5.775165825
 C       -4.198283835    17.505331650    -4.588661565
 C       -4.449047874    16.639255671    -5.578972748
Si       -5.772139719    15.373030255    -5.571888065
 C       -6.905899660    15.691068705    -6.989792753
 C       -6.976141507    16.960407053    -7.572641837
 C       -7.834256800    17.200051836    -8.645395216
 C       -8.645706845    16.181236882    -9.152039988
 C       -8.576711101    14.911682737    -8.562560944
 C       -7.718003758    14.667832856    -7.493782142
 C       -9.558468135    16.385026246   -10.272267269
 C       -9.721035065    17.548173647   -10.925347696
 C      -10.634261949    17.750555091   -12.045537863
 C      -11.442144744    16.729459841   -12.553451706
 C      -12.301069858    16.966888703   -13.625984211
 C      -12.377129400    18.235626380   -14.210533149
 C      -11.568910527    19.260708218   -13.702919172
 C      -10.706651125    19.018907968   -12.636295778
Si      -13.513807324    18.551715144   -15.630631654
 C      -15.000876044    17.423358213   -15.525278929
 C      -14.099100786    20.327060188   -15.599460483
 C      -12.580127103    18.220728898   -17.215005543
 C       -4.952949406    13.702729433    -5.741840955
 C       -6.768416369    15.443216937    -3.993745735
 C       -4.970659959    12.700147503    -1.894153157
 C       -4.249756209    13.039589864     1.055421215
 C       -0.633096654    -0.852209603    -1.537860566
 C       -0.606061199    -0.907562977     1.518054651
 H        0.967178077     2.522833891    -1.271242583
 H        0.136688739     4.802893687    -1.268020903
 H       -3.167437648     3.641471221     1.233762525
 H       -2.368795950     1.344647926     1.263080607
 H       -3.019301880     5.880735597     0.587994599
 H       -0.624628253     6.671577157    -1.208884343
 H       -3.780714710     7.758860629     0.641746495
 H       -4.604653049    10.043374176     0.638961687
 H       -1.248643605    11.212186939    -1.875525766
 H       -0.468751770     8.905116764    -1.857217237
 H       -1.371468843    13.585032639    -0.291210769
 H       -2.895565092    14.591998736    -2.824245952
 H       -1.817257616    16.169025798    -4.138467684
 H        0.091998442    17.611310903    -4.661796556
 H        2.075823688    16.255283264    -1.064747250
 H        0.224494540    14.731965680    -0.627849864
 H        4.229642549    18.606016164    -2.660567541
 H        3.847783850    16.954810491    -2.143418507
 H        3.140364685    18.352795022    -1.264988433
 H        1.321664170    22.560347606    -5.658249943
 H        0.034274235    21.826036502    -6.626833849
 H        1.387456960    20.811015269    -6.029377649
 H       -1.867093434    20.994439204    -2.669082944
 H       -3.628508698    19.273515800    -2.670445237
 H       -2.378297610    17.993264702    -6.588102617
 H       -0.610096436    19.677382857    -6.588479051
 H       -4.782138130    17.532622634    -3.658880743
 H       -3.844695472    16.636276068    -6.500834786
 H       -6.366552555    17.797557812    -7.216153013
 H       -7.867589267    18.195119507    -9.085882969
 H       -9.200027989    14.104540770    -8.942659970
 H       -7.704654746    13.657224056    -7.076366226
 H      -10.128843832    15.498100056   -10.563968298
 H       -9.151126979    18.435449702   -10.633784289
 H      -11.406091525    15.734323598   -12.113579964
 H      -12.906402123    16.127720874   -13.979806426
 H      -11.585887975    20.271947802   -14.118608838
 H      -10.084957108    19.828141198   -12.257276098
 H        2.883470983    19.785585140    -4.019362851
 H        1.376411226    19.110278568    -4.681815476
 H        0.220655041    19.525153535    -2.447255013
 H        1.697611774    20.242538083    -1.806346888
 H        0.121552752    22.013329537    -2.553277624
 H        1.634367535    22.083430407    -3.487391418
 H        2.268543796    -1.028290698     0.057156130
 H        2.268854637     0.560183237     0.865021130
 H        2.279444414     0.463261143    -0.914410929
 H      -15.723791115    17.639965985   -16.331785964
 H      -15.529878218    17.548134768   -14.563068424
 H      -14.716271495    16.360417512   -15.614472174
 H      -14.582131130    20.572113034   -14.636183570
 H      -13.265721459    21.036283061   -15.745056640
 H      -14.837819805    20.517594866   -16.398249555
 H      -12.223742725    17.175902763   -17.261067599
 H      -13.214859476    18.397046480   -18.100988840
 H      -11.693395043    18.874014647   -17.303176057
 H       -4.446127156    13.601838546    -6.718840150
 H       -4.188865834    13.548380051    -4.956731058
 H       -5.684279832    12.879787490    -5.661905643
 H       -7.310209472    16.402875903    -3.906727327
 H       -7.524118570    14.638355857    -3.960514883
 H       -6.126154773    15.339240975    -3.100663861
 H       -4.610297158    12.454899663    -2.910338382
 H       -5.797951930    12.005086379    -1.664500489
 H       -5.391104604    13.721408621    -1.923393332
 H       -3.484782871    12.883928123     1.837464538
 H       -4.540752347    14.105082875     1.085006446
 H       -5.136149326    12.444349691     1.334525938
 H       -0.287923854    -0.339468178    -2.453585502
 H       -0.286834434    -1.899285493    -1.589666733
 H       -1.737690335    -0.863394680    -1.564862048
 H       -0.315627119    -0.378334481     2.443625531
 H       -1.705267783    -1.010371167     1.521978841
 H       -0.179854844    -1.925259818     1.571079226

