139   

Si        0.000000000     0.000000000     0.000000000
 C        1.868958131     0.000000000     0.000000000
 C       -0.594835665     1.747389026     0.000000000
 C       -0.245410945     2.594848682    -1.058647611
 C       -0.682208312     3.918119988    -1.081321555
 C       -1.476292361     4.426551464    -0.048644003
 C       -1.824442690     3.577164862     1.008945700
 C       -1.390101882     2.253371504     1.033929038
 C       -1.956027792     5.804716783    -0.030988929
 C       -1.694520243     6.717114997    -0.982292491
 C       -2.173307604     8.095611343    -0.966401317
 C       -2.967264929     8.605886090     0.065022155
 C       -3.403008728     9.929999776     0.040119438
 C       -3.047271309    10.774569375    -1.016923468
 C       -2.252538620    10.267193104    -2.051768138
 C       -1.824246771     8.942079381    -2.026714174
Si       -3.623911213    12.527344638    -1.050166220
 C       -2.568192588    13.463310882    -2.218109730
 C       -2.999256394    14.104766638    -3.312304400
 C       -2.128741108    14.845156511    -4.227192737
 C       -2.697513937    15.477652230    -5.342671788
 C       -1.917985477    16.190286688    -6.238109667
 C       -0.530234230    16.335838870    -6.019568380
 C        0.041517739    15.701416745    -4.900862143
 C       -0.748443835    14.952231963    -4.038162776
 N        0.242110056    17.063692552    -6.941916707
 C       -0.383022148    18.261331294    -7.531286226
 C        1.664861250    17.258046002    -6.619868750
 C       -0.868260885    19.285879419    -6.484853566
 C       -0.861859223    20.722065542    -7.039848585
 N        0.325294615    21.521786418    -6.659679047
 C        1.560078702    20.937333799    -7.050665797
 C        1.783626383    20.752051484    -8.430067711
 C        2.967776512    20.187417796    -8.873313062
 C        3.979404633    19.827654849    -7.968434426
 C        3.763175672    20.038005620    -6.605314534
 C        2.572964418    20.592058848    -6.144571576
 C        0.256304020    21.999039991    -5.267135778
 C        5.211089406    19.234296419    -8.492902530
 C        6.246191948    18.850169810    -7.734688457
Si        7.792143041    18.106534379    -8.381257333
 C        7.699794131    17.971778033   -10.218400033
 C        6.690291497    17.191154308   -10.796077647
 C        6.594126535    17.069587647   -12.180759813
 C        7.499461270    17.726368741   -13.020201303
 C        8.506676845    18.507492853   -12.439904531
 C        8.607070395    18.629540930   -11.055295798
 C        7.436415120    17.627451418   -14.474766568
 C        6.522305551    16.913185307   -15.153055438
 C        6.457837390    16.813198334   -16.607499814
 C        7.361727863    17.466132582   -17.449265771
 C        7.262596150    17.342380386   -18.835299455
 C        6.257075041    16.559435491   -19.409489162
 C        5.348777340    15.903114880   -18.567533546
 C        5.448623967    16.030472104   -17.184883301
Si        6.099177918    16.375540955   -21.239778808
 C        7.525595187    17.206626974   -22.116093246
 C        6.096006349    14.555356747   -21.665058886
 C        4.492685232    17.162288098   -21.780243381
 C        9.225377049    19.184210698    -7.859184103
 C        7.992647119    16.396189467    -7.657350646
 C       -5.417730581    12.551937205    -1.568034349
 C       -3.436738468    13.293953833     0.643778774
 C       -0.639839100    -0.849341824    -1.537175394
 C       -0.616587984    -0.912807224     1.510142712
 H        0.373036512     2.255100096    -1.894368509
 H       -0.397753434     4.556688011    -1.915915180
 H       -2.442353660     3.951854454     1.822965980
 H       -1.694419007     1.638101298     1.884900020
 H       -2.567547117     6.065040702     0.837863864
 H       -1.083340706     6.455931422    -1.851474464
 H       -3.253419566     7.968556975     0.899527469
 H       -4.022802985    10.272063119     0.873300203
 H       -1.947027471    10.883640515    -2.904129610
 H       -1.209498057     8.563733701    -2.841548256
 H       -1.501491308    13.465972252    -1.941091138
 H       -4.055565182    14.122286729    -3.611936526
 H       -3.770814289    15.398217315    -5.517635873
 H       -2.381330511    16.637295951    -7.112888496
 H        1.104766855    15.784262940    -4.698629985
 H       -0.276787588    14.456249032    -3.188121237
 H        2.165816461    17.798760507    -7.445221087
 H        2.159802822    16.274240771    -6.537383365
 H        1.835461175    17.830973254    -5.694143320
 H       -0.657894787    22.607095703    -5.147737964
 H        1.112621492    22.666372948    -5.064943301
 H        0.241453640    21.198356036    -4.511361900
 H        1.024862123    21.065649935    -9.144103096
 H        3.122695665    20.037656029    -9.942957799
 H        4.536091146    19.771247278    -5.883390967
 H        2.436075277    20.736653180    -5.076992996
 H        5.209858747    19.136813218    -9.588793534
 H        6.228310047    18.965380237    -6.639980290
 H        5.953295616    16.652912961   -10.191157766
 H        5.802839490    16.454802597   -12.606201590
 H        9.221708338    19.027218823   -13.075138547
 H        9.413333504    19.253460232   -10.659945280
 H        8.208666734    18.191668883   -15.005927525
 H        5.750307851    16.348411704   -14.621818138
 H        8.155337095    18.080565536   -17.027556007
 H        7.998171926    17.877909132   -19.441866561
 H        4.541887874    15.277759272   -18.959990979
 H        4.733642106    15.513875841   -16.547043933
 H        0.353972932    18.728745544    -8.225142406
 H       -1.230668423    17.932748832    -8.173808652
 H       -1.881712974    19.011993723    -6.137754336
 H       -0.234223142    19.225138710    -5.579039120
 H       -0.926326073    20.717202577    -8.150993870
 H       -1.765816753    21.270699063    -6.691850241
 H        2.271070180    -1.028230923    -0.014029880
 H        2.268677053     0.502366036     0.899690748
 H        2.274649803     0.529462666    -0.880218375
 H        7.463973092    17.055214892   -23.208772292
 H        8.497035812    16.800636540   -21.781433255
 H        7.535293830    18.296058476   -21.934769013
 H        7.019764532    14.061460773   -21.312231889
 H        5.243364364    14.030110675   -21.199859611
 H        6.029496698    14.397507361   -22.755909715
 H        4.471462800    18.239316955   -21.533206877
 H        4.344680503    17.067501304   -22.870382496
 H        3.624907030    16.693617827   -21.283132554
 H        9.125908237    20.209307924    -8.260804448
 H        9.286696866    19.267062915    -6.759247503
 H       10.187954529    18.774830859    -8.214153056
 H        7.141313901    15.742863789    -7.920919096
 H        8.910749664    15.910087756    -8.034779629
 H        8.060048873    16.427014377    -6.555736642
 H       -5.551517140    12.109350605    -2.572151956
 H       -6.045624518    11.971896096    -0.868321349
 H       -5.815154911    13.581830613    -1.597988962
 H       -2.393458114    13.228057202     1.002017364
 H       -3.715211317    14.363214326     0.629392283
 H       -4.077335710    12.792832146     1.389943234
 H       -0.287060733    -0.347064505    -2.455245436
 H       -0.307844646    -1.901363754    -1.583431353
 H       -1.744762191    -0.846796416    -1.564108350
 H       -0.256701823    -0.442983794     2.442792874
 H       -1.720306416    -0.934439418     1.547879673
 H       -0.266199148    -1.960554469     1.512342877

