139   

Si        0.000000000     0.000000000     0.000000000
 C        1.869309057     0.000000000     0.000000000
 C       -0.640392432     1.731690064     0.000000000
 C        0.097154149     2.770435490     0.577934315
 C       -0.392449419     4.076303273     0.574490706
 C       -1.632201725     4.372694326     0.001604441
 C       -2.372094777     3.330332836    -0.572042723
 C       -1.884448699     2.026005897    -0.572458953
 C       -2.186251790     5.722329829    -0.026304604
 C       -1.583236316     6.809926544     0.483196545
 C       -2.142943449     8.157507220     0.452034812
 C       -1.408887888     9.207040426     1.020826934
 C       -1.903670060    10.508909384     1.014008840
 C       -3.150971441    10.789458430     0.443226619
 C       -3.886440931     9.744072070    -0.124792714
 C       -3.384721924     8.443182398    -0.122304706
Si       -3.815574349    12.510199698     0.428911328
 C       -5.635740752    12.417153687     0.230552551
 C       -6.335542176    12.953254915    -0.777412794
 C       -7.792069371    12.860064493    -0.905622068
 C       -8.412526404    13.464649834    -2.009907225
 C       -9.786057331    13.405186432    -2.177107707
 C      -10.590646045    12.766526076    -1.211382977
 C       -9.974467696    12.158916964    -0.107218587
 C       -8.590283547    12.190776346     0.024953696
 N      -11.988274936    12.740052509    -1.441467613
 C      -12.643001302    14.060442927    -1.523901919
 C      -12.752652888    11.749797598    -0.668007883
 C      -13.067906853    14.694216184    -0.187628307
 C      -11.897337953    15.143823083     0.706267565
 N      -11.226824600    16.389325027     0.296853662
 C      -12.034218888    17.499252011     0.011938437
 C      -13.174090776    17.748379494     0.809128523
 C      -13.986835798    18.838300780     0.547227711
 C      -13.680841528    19.743090597    -0.480235706
 C      -12.536729096    19.510451567    -1.248333184
 C      -11.716999322    18.415296057    -1.009379471
 C      -10.026869466    16.194232013    -0.526755604
 C      -14.574430674    20.878569849    -0.714367578
 C      -14.381635579    21.802652266    -1.664847478
Si      -15.471920338    23.237189952    -1.992572918
 C      -14.480256332    24.777606410    -1.771326310
 C      -13.384413103    24.789555727    -0.899338897
 C      -12.632521444    25.949212299    -0.728503616
 C      -12.960601584    27.124407118    -1.417308930
 C      -14.057575252    27.109488820    -2.283505607
 C      -14.810885017    25.949276875    -2.459407361
 C      -12.142414981    28.314206334    -1.205065696
 C      -12.346975006    29.499683860    -1.803936295
 C      -11.529136567    30.689635116    -1.592025682
 C      -10.431947539    30.706678614    -0.726440064
 C       -9.677770443    31.866990329    -0.554207633
 C       -9.998923948    33.035538857    -1.253036313
 C      -11.097151282    33.020558019    -2.122160796
 C      -11.853644383    31.862840796    -2.285848506
Si       -9.002966966    34.573906680    -1.027873493
 C       -7.247016510    34.139417875    -0.555468906
 C       -8.975655293    35.554630240    -2.619388632
 C       -9.789929566    35.589293308     0.329063411
 C      -16.086270046    23.105192886    -3.752535794
 C      -16.920422436    23.291318468    -0.815595485
 C       -3.455439064    13.357499926     2.054147655
 C       -3.014370466    13.447665791    -0.972269936
 C       -0.602790267    -0.902941987    -1.522104929
 C       -0.631184271    -0.857477998     1.535663440
 H        1.072671688     2.600669203     1.041997527
 H        0.203501508     4.867516720     1.026079719
 H       -3.340159415     3.539000142    -1.024068000
 H       -2.506131011     1.255373108    -1.036609793
 H       -3.165605985     5.803426161    -0.507818404
 H       -0.604276769     6.731110628     0.964690634
 H       -0.439639681     9.005629458     1.473156422
 H       -1.286130777    11.287136665     1.470488358
 H       -4.866580415     9.906585022    -0.585711750
 H       -3.974589278     7.646943770    -0.573246519
 H       -6.137540028    11.864077831     1.041465371
 H       -5.863850582    13.510331804    -1.597588759
 H       -7.804574345    13.974295128    -2.758234924
 H      -10.250373559    13.836406048    -3.061992977
 H      -10.567647910    11.653874402     0.649232546
 H       -8.130280468    11.696930531     0.882515878
 H      -13.788818077    11.721253276    -1.048184558
 H      -12.783967581    11.941814266     0.415844904
 H      -12.317485081    10.748029599    -0.836441004
 H       -9.444805472    15.333910020    -0.147000007
 H       -9.375625903    17.083060921    -0.436612303
 H      -10.242720581    16.012958820    -1.592104466
 H      -13.414504643    17.084721436     1.634495625
 H      -14.871861977    19.002085050     1.162873111
 H      -12.274860184    20.199327303    -2.053463691
 H      -10.841200749    18.269477111    -1.633284813
 H      -15.430381610    20.904202518    -0.027045633
 H      -13.512468353    21.749766213    -2.340562971
 H      -13.082195175    23.900062395    -0.335965119
 H      -11.781332622    25.939414820    -0.049938293
 H      -14.333301846    28.008737136    -2.831051719
 H      -15.655642929    25.997394916    -3.151697752
 H      -11.316686295    28.181377566    -0.499658163
 H      -13.172744013    29.632430944    -2.509081925
 H      -10.157014251    29.808847507    -0.175556912
 H       -8.833228370    31.818920372     0.138865430
 H      -11.395130754    33.902933330    -2.695117936
 H      -12.704961477    31.872061851    -2.964048792
 H      -11.979555933    14.763223408    -2.075617122
 H      -13.546668001    13.924237994    -2.166088089
 H      -13.724692784    15.562739333    -0.406969222
 H      -13.704463465    13.990414633     0.380513916
 H      -12.267580549    15.298074754     1.748667408
 H      -11.137213164    14.332000539     0.776048542
 H        2.267989541    -1.028480590    -0.058739160
 H        2.279536100     0.460750528     0.915634915
 H        2.269292526     0.560716138    -0.864286450
 H       -6.618048252    35.044411072    -0.481323944
 H       -6.783983241    33.474232300    -1.306709947
 H       -7.200229732    33.624880464     0.420203133
 H       -8.588147708    34.946393275    -3.456760204
 H       -9.983171145    35.906776497    -2.901486872
 H       -8.328197348    36.444915530    -2.528599121
 H       -9.819328611    35.031634578     1.282502344
 H       -9.232724257    36.525839472     0.506393243
 H      -10.830325596    35.861539069     0.075776699
 H      -15.252874018    23.167188890    -4.475439281
 H      -16.600349157    22.141719004    -3.922160363
 H      -16.801003284    23.910108729    -3.996381212
 H      -16.582737255    23.365514311     0.234322965
 H      -17.566199013    24.165418426    -1.014395635
 H      -17.546923428    22.386348116    -0.905171154
 H       -3.849747558    12.776483596     2.907551848
 H       -2.370776278    13.488337032     2.213354080
 H       -3.920258041    14.359563957     2.092674451
 H       -3.215478481    12.965237152    -1.946364309
 H       -3.384588074    14.486711674    -1.027511948
 H       -1.916976448    13.491039696    -0.849693608
 H       -0.311030970    -0.369700280    -2.445096418
 H       -0.175986840    -1.920221031    -1.577862782
 H       -1.701912764    -1.005868309    -1.529800931
 H       -0.285607571    -0.346400637     2.452318901
 H       -1.735595232    -0.870917016     1.563685920
 H       -0.282687764    -1.904016099     1.584667366

