139   

Si        0.000000000     0.000000000     0.000000000
 C        1.869410398     0.000000000     0.000000000
 C       -0.638063462     1.732705713     0.000000000
 C        0.115263475     2.772846944     0.554704541
 C       -0.369826098     4.080213430     0.552919912
 C       -1.621247828     4.376956181     0.005970930
 C       -2.376961715     3.333399254    -0.544149504
 C       -1.893330650     2.027409519    -0.546945862
 C       -2.169117128     5.729470275    -0.017916813
 C       -1.545905875     6.814814761     0.471885601
 C       -2.091688687     8.168049840     0.449124140
 C       -3.342849990     8.467890549    -0.097153910
 C       -3.826060623     9.776239951    -0.097865464
 C       -3.061381769    10.813769819     0.443335692
 C       -1.806284103    10.517966969     0.991132430
 C       -1.329978804     9.209739562     0.995278255
Si       -3.674056840    12.554426491     0.456642174
 C       -2.195620821    13.633085309     0.358994648
 C       -1.829617400    14.544678819     1.268874265
 C       -0.635448907    15.384428087     1.144340463
 C       -0.347706659    16.308865993     2.160746346
 C        0.769955153    17.123925785     2.086376305
 C        1.652952575    17.014319915     0.994140989
 C        1.366336937    16.097816524    -0.026670547
 C        0.222361426    15.309685299     0.044746852
 N        2.782152284    17.881171169     0.978495652
 C        3.738206674    17.610218898     2.078468913
 C        3.455512799    18.016698883    -0.326030911
 C        4.242012645    16.156410959     2.142179853
 C        3.498245224    15.335424841     3.216166310
 N        3.443223879    13.889884631     2.930689568
 C        4.672105022    13.251195201     2.681178582
 C        5.803943521    13.608086307     3.446435243
 C        7.024341352    12.994263849     3.220185150
 C        7.158118804    11.975483707     2.264747329
 C        6.029579896    11.603095357     1.530492825
 C        4.801011063    12.219412157     1.733215037
 C        2.309926790    13.514184057     2.070540028
 C        8.471865176    11.361613005     2.067066349
 C        8.724002451    10.383187081     1.187381741
Si       10.360399714     9.603427631     0.926358096
 C       11.611729317    10.361125024     2.051045369
 C       12.742508916    11.018576444     1.559078426
 C       13.672112595    11.582171303     2.433729588
 C       13.490500753    11.503473195     3.816728879
 C       12.355219332    10.844490854     4.308354106
 C       11.427090543    10.279700987     3.438579110
 C       14.435740221    12.077815356     4.768809785
 C       15.559436942    12.732870049     4.430522304
 C       16.504713855    13.307234378     5.382609933
 C       16.324321082    13.227141865     6.766279628
 C       17.253521002    13.790568396     7.640169599
 C       18.390533617    14.440928412     7.148371244
 C       18.573886850    14.521717255     5.762354502
 C       17.640567365    13.964378544     4.891792269
Si       19.620419389    15.186710751     8.306365306
 C       19.681836639    14.200441051     9.893429618
 C       21.319319557    15.185448144     7.526278115
 C       19.093139009    16.941815978     8.671233982
 C       10.233641222     7.778435683     1.307954745
 C       10.843490719     9.836631214    -0.863738864
 C       -4.745642432    12.893361127    -1.033903422
 C       -4.646441313    12.840263750     2.022943764
 C       -0.603804240    -0.900464082    -1.523086839
 C       -0.632183244    -0.856842988     1.535391867
 H        1.100107567     2.603021399     0.998877408
 H        0.238530626     4.872135211     0.986606642
 H       -3.354264915     3.542329380    -0.975447165
 H       -2.527498394     1.255642134    -0.991773442
 H       -3.158625563     5.814111876    -0.476682313
 H       -0.556474620     6.729082571     0.931275391
 H       -3.953766515     7.676708019    -0.528068874
 H       -4.811697857     9.949985984    -0.537703619
 H       -1.165682091    11.292076611     1.427477866
 H       -0.353211078     8.997214643     1.427238535
 H       -1.598464322    13.468095778    -0.553649594
 H       -2.402353101    14.734765200     2.185451680
 H       -1.017166945    16.395886089     3.016804817
 H        0.965597812    17.861721246     2.862125680
 H        2.028497398    15.994303529    -0.881688187
 H        0.007923610    14.615002764    -0.769195969
 H        4.169165034    18.857538967    -0.266060003
 H        2.711669017    18.281853777    -1.097459781
 H        4.004013996    17.119616384    -0.652620827
 H        1.396439347    14.041576358     2.403066676
 H        2.111163307    12.432970841     2.178334817
 H        2.463050139    13.752667796     1.005282571
 H        5.721149271    14.369671813     4.216576660
 H        7.892084765    13.299862169     3.806496047
 H        6.105994377    10.814056517     0.781209621
 H        3.951146990    11.902440614     1.136966434
 H        9.249376008    11.789165311     2.717292964
 H        7.928733657     9.975783231     0.544436313
 H       12.937228988    11.114735956     0.487449601
 H       14.544958441    12.087969011     2.025142946
 H       12.195663989    10.771855786     5.382645094
 H       10.560835097     9.776465408     3.880062972
 H       14.167020147    11.939038909     5.820144297
 H       15.828608533    12.871555595     3.379128391
 H       15.450808314    12.721907761     7.174628167
 H       17.056336199    13.697058561     8.711726733
 H       19.443108983    15.016585535     5.320432630
 H       17.799978384    14.039393903     3.817594304
 H        4.596485913    18.309330186     1.964228629
 H        3.242295386    17.899521055     3.032162037
 H        4.127961164    15.669851670     1.153908945
 H        5.329319030    16.133455418     2.342951561
 H        3.981174928    15.473513063     4.210081593
 H        2.453539890    15.705591179     3.335422152
 H        2.267596280    -1.027906778    -0.071756841
 H        2.279731293     0.448570472     0.921664332
 H        2.269669798     0.571304854    -0.857085421
 H       20.463100676    14.585219838    10.572870057
 H       19.909128257    13.137345953     9.694500985
 H       18.722309876    14.240102648    10.437973503
 H       21.617453601    14.166711949     7.218683252
 H       21.359504699    15.829728783     6.630643583
 H       22.083451161    15.555322573     8.233050488
 H       18.088016883    16.973133476     9.128931149
 H       19.793298393    17.436126515     9.367407426
 H       19.053094649    17.549393577     7.749274934
 H        9.914600965     7.605470270     2.351575026
 H        9.501765541     7.278245942     0.649757784
 H       11.206976731     7.273884332     1.171142071
 H       10.916082971    10.908126164    -1.124664380
 H       11.819249510     9.368530375    -1.083198447
 H       10.098677873     9.383218006    -1.541879041
 H       -4.217819489    12.652703371    -1.974569693
 H       -5.674859536    12.297342940    -1.010483572
 H       -5.036660318    13.958794476    -1.081705692
 H       -4.031226787    12.648468370     2.921081958
 H       -5.018562463    13.878488788     2.084166241
 H       -5.522720013    12.168953791     2.078371220
 H       -0.308810492    -0.368168159    -2.445563018
 H       -0.180431053    -1.919227893    -1.578214474
 H       -1.703259125    -0.999319212    -1.532488605
 H       -0.290708012    -0.342871617     2.452062358
 H       -1.736651409    -0.873438109     1.560569686
 H       -0.280790783    -1.902264844     1.587274308

