139   

Si        0.000000000     0.000000000     0.000000000
 C        1.868967537     0.000000000     0.000000000
 C       -0.657181076     1.725001303     0.000000000
 C        0.192581024     2.834782859     0.013886294
 C       -0.329040458     4.128768267     0.013573703
 C       -1.709632052     4.341850313    -0.002508308
 C       -2.560540323     3.228086336    -0.016407174
 C       -2.043034050     1.935848589    -0.014261072
 C       -2.301324026     5.675691717    -0.003499190
 C       -1.603416042     6.824122581     0.010596737
 C       -2.200637090     8.155825835     0.009527240
 C       -1.358095989     9.275093677     0.025275458
 C       -1.884705560    10.565156147     0.024882473
 C       -3.269213347    10.763354027     0.000705444
 C       -4.114086570     9.647243750    -0.017020958
 C       -3.583828583     8.358476422    -0.010675917
Si       -4.009584795    12.453788823    -0.000740574
 C       -5.548103144    12.344404921    -0.989817016
 C       -6.782630248    12.614501383    -0.547183741
 C       -7.985892523    12.512869612    -1.376293950
 C       -9.230550948    12.821458853    -0.804709221
 C      -10.395839047    12.740378222    -1.547738071
 C      -10.349603589    12.325917623    -2.895021990
 C       -9.107017272    12.027730405    -3.473546363
 C       -7.942159611    12.141966092    -2.721661169
 N      -11.574390636    12.262365730    -3.604564366
 C      -12.591001983    11.366518313    -3.001526773
 C      -11.472261646    12.123186347    -5.066843857
 C      -12.050443164    10.110655848    -2.296860013
 C      -11.275323679     9.179198262    -3.245928881
 N      -10.455285805     8.181551751    -2.540821224
 C      -11.107683384     7.183823926    -1.804182834
 C      -12.430392359     6.802451798    -2.117917302
 C      -13.068813429     5.814928885    -1.384762496
 C      -12.411034883     5.136385422    -0.349695943
 C      -11.089987718     5.492970245    -0.061092659
 C      -10.439606165     6.489722535    -0.774036148
 C       -9.222186954     8.742582614    -1.963140325
 C      -13.131151779     4.101559490     0.393808778
 C      -12.599807555     3.393190604     1.399095570
Si      -13.458887241     2.090857785     2.357666402
 C      -12.525952081     0.511855011     2.148838542
 C      -11.648961666     0.345735652     1.070038066
 C      -10.944467236    -0.845111480     0.911328536
 C      -11.103666499    -1.899109052     1.820343342
 C      -11.983770314    -1.731228826     2.893537099
 C      -12.689185149    -0.539614960     3.056832123
 C      -10.343136827    -3.126846176     1.610846813
 C      -10.400649100    -4.208835244     2.405691731
 C       -9.639145706    -5.435679854     2.194292889
 C       -8.759642680    -5.601772082     1.120722143
 C       -8.051576728    -6.791769125     0.956810776
 C       -8.201159517    -7.841403787     1.869753672
 C       -9.081460065    -7.677136259     2.946470049
 C       -9.793457798    -6.490469596     3.103430848
Si       -7.263744874    -9.417073869     1.652900336
 C       -5.623005766    -9.076437878     0.823670258
 C       -6.947991140   -10.210237160     3.316198896
 C       -8.283620459   -10.565245337     0.588459558
 C      -13.464270627     2.600217039     4.155506054
 C      -15.209093267     1.831131368     1.761564707
 C       -4.343075197    12.968626899     1.761292817
 C       -2.869644418    13.683557490    -0.821357305
 C       -0.616969931    -0.876550125    -1.531197593
 C       -0.618378716    -0.874521949     1.531432871
 H        1.281075976     2.731551962     0.024996444
 H        0.354664366     4.975725834     0.025778623
 H       -3.639587451     3.372096359    -0.028502151
 H       -2.756034507     1.106388892    -0.024232001
 H       -3.395436496     5.689376191    -0.016794160
 H       -0.509724057     6.812486525     0.024193683
 H       -0.278357854     9.138686596     0.039522968
 H       -1.179608846    11.400410712     0.039237417
 H       -5.205115937     9.744125789    -0.039035701
 H       -4.260871548     7.505908970    -0.023687958
 H       -5.373709246    12.023494610    -2.030336557
 H       -6.989188756    12.937244611     0.481406432
 H       -9.282360385    13.134905942     0.238444847
 H      -11.352134515    13.004502955    -1.101137287
 H       -9.036951697    11.712626820    -4.510431946
 H       -6.984397093    11.921216781    -3.196125082
 H      -12.464834214    12.321556420    -5.509628197
 H      -11.127480051    11.136487972    -5.411954293
 H      -10.789967392    12.896934158    -5.462409631
 H       -8.862092407     9.594682843    -2.567598645
 H       -8.429487106     7.972581526    -1.986428433
 H       -9.348663787     9.099915493    -0.927659990
 H      -12.963954039     7.284755771    -2.930792965
 H      -14.098814849     5.554222040    -1.630338351
 H      -10.552140803     4.979242002     0.737891229
 H       -9.411880440     6.730271612    -0.520674120
 H      -14.161801891     3.955562826     0.044498949
 H      -11.561905577     3.564617585     1.728343007
 H      -11.487615002     1.134217015     0.326929837
 H      -10.264421223    -0.955305577     0.068555811
 H      -12.125657605    -2.534968807     3.613536664
 H      -13.362132571    -0.466093075     3.915303314
 H       -9.694231684    -3.117212685     0.729856140
 H      -11.049676063    -4.219500456     3.286231618
 H       -8.621252877    -4.798812459     0.398816333
 H       -7.380921560    -6.862527500     0.095999536
 H       -9.239028774    -8.462070435     3.691298730
 H      -10.475134505    -6.383429670     3.945269732
 H      -13.149970884    11.986377161    -2.258836486
 H      -13.330434941    11.075839569    -3.778382040
 H      -11.397609051    10.403197466    -1.449400551
 H      -12.890227422     9.558597639    -1.831282363
 H      -11.971534685     8.652610916    -3.936003835
 H      -10.592911268     9.769465727    -3.900840588
 H        2.266547719    -1.030691846     0.015577298
 H        2.274683653     0.522850979     0.884422703
 H        2.273954756     0.496016932    -0.900037324
 H       -5.016196807    -9.996179617     0.747072115
 H       -5.033136014    -8.336007129     1.393840258
 H       -5.754553696    -8.682149814    -0.199062188
 H       -6.413870073    -9.519307375     3.993426410
 H       -7.887873092   -10.505894192     3.814239383
 H       -6.329104704   -11.119364765     3.213827054
 H       -8.479870057   -10.123837676    -0.405240703
 H       -7.770672437   -11.530093220     0.430400263
 H       -9.263430073   -10.779197559     1.052152195
 H      -12.436148276     2.693946229     4.549711757
 H      -13.960754978     3.578328205     4.289944301
 H      -13.997329545     1.866797158     4.784832447
 H      -15.230655606     1.535473492     0.696668738
 H      -15.713342560     1.031848413     2.333616210
 H      -15.812402105     2.749881283     1.868758157
 H       -5.018595322    12.256061818     2.268817393
 H       -3.408745479    13.009374831     2.350370411
 H       -4.810115512    13.968567202     1.808712072
 H       -2.587781183    13.356942946    -1.838720228
 H       -3.352647780    14.673682658    -0.914136024
 H       -1.938525272    13.822567557    -0.244211930
 H       -0.272647504    -0.367152622    -2.449547041
 H       -0.253477984    -1.918381769    -1.572082748
 H       -1.720400103    -0.906486826    -1.564877672
 H       -0.271555455    -0.366206135     2.449592369
 H       -1.722100233    -0.900020361     1.566605649
 H       -0.259130047    -1.917841056     1.572092754

