139   

Si        0.000000000     0.000000000     0.000000000
 C        1.869386453     0.000000000     0.000000000
 C       -0.645784653     1.729601561     0.000000000
 C        0.150813540     2.798841573     0.421898861
 C       -0.348267424     4.101209203     0.417378135
 C       -1.655199465     4.364020737    -0.001658040
 C       -2.453670494     3.290969626    -0.419457454
 C       -1.957482596     1.989966958    -0.417907557
 C       -2.219724694     5.709584877    -0.023276246
 C       -1.561620937     6.820722846     0.348590991
 C       -2.124919338     8.166811574     0.327465915
 C       -3.432156821     8.430468609    -0.091566760
 C       -3.930127997     9.732988035    -0.095683152
 C       -3.125321787    10.801583888     0.312294740
 C       -1.814815011    10.541656819     0.732055391
 C       -1.323424582     9.238704884     0.742034462
Si       -3.772898509    12.529404771     0.311239240
 C       -2.349676659    13.670961884     0.144942164
 C       -2.000365226    14.614093667     1.029695890
 C       -0.854505715    15.510332467     0.863908811
 C       -0.585408583    16.461177282     1.858630069
 C        0.486717568    17.331757556     1.748204514
 C        1.307768396    17.314307237     0.599995335
 C        1.037397559    16.360402273    -0.399162861
 C       -0.012454307    15.463308246    -0.250488583
 N        2.394126805    18.204494416     0.500619308
 C        2.226419827    19.531980158     1.119882026
 C        3.083630661    18.271276304    -0.799437310
 C        1.088674703    20.350099393     0.488738490
 C        0.931491200    21.700465681     1.205758505
 N       -0.096372730    22.562432496     0.593357101
 C        0.120363413    22.956376262    -0.741305674
 C        1.434502545    23.190806100    -1.200172963
 C        1.662569114    23.578794526    -2.510525964
 C        0.599967160    23.798468117    -3.398319913
 C       -0.702408534    23.596228421    -2.933428545
 C       -0.947507320    23.188580770    -1.628555693
 C       -1.464527805    22.149570090     0.950850868
 C        0.896321438    24.207422546    -4.772630377
 C       -0.037592265    24.444046497    -5.703136614
Si        0.287995194    24.956705170    -7.431571212
 C       -0.418755730    23.677800457    -8.558422320
 C       -0.674220529    22.382908443    -8.091035808
 C       -1.207649080    21.418560035    -8.942506329
 C       -1.490866142    21.721226641   -10.280763444
 C       -1.229795764    23.013777253   -10.745072667
 C       -0.698458598    23.982632742    -9.894645505
 C       -2.049111719    20.676940039   -11.133695832
 C       -2.367218101    20.836331496   -12.429551698
 C       -2.925439433    19.791979237   -13.282327885
 C       -3.186766590    18.499487467   -12.818989746
 C       -3.720939767    17.531903783   -13.669138377
 C       -4.014540333    17.838539804   -15.002202176
 C       -3.754418342    19.133210028   -15.468659951
 C       -3.213598431    20.095518447   -14.619404232
Si       -4.721878878    16.558810245   -16.129517111
 C       -5.741166305    15.334680462   -15.150841832
 C       -5.816622919    17.369406798   -17.410114589
 C       -3.309600297    15.673079491   -16.973489715
 C       -0.554034843    26.600191599    -7.715214062
 C        2.116683285    25.107726000    -7.776443820
 C       -4.903582980    12.799181717    -1.151527357
 C       -4.709270531    12.813158790     1.901351593
 C       -0.604190453    -0.893888060    -1.526881345
 C       -0.629601628    -0.862634483     1.533282074
 H        1.180526219     2.656536078     0.761397505
 H        0.294169355     4.916101192     0.746770926
 H       -3.474678896     3.473433756    -0.749699886
 H       -2.627254072     1.194240116    -0.755519874
 H       -3.254181030     5.765938498    -0.374591466
 H       -0.527006926     6.763861678     0.700128705
 H       -4.075244139     7.615651231    -0.418715068
 H       -4.960336037     9.877312374    -0.432003123
 H       -1.141653968    11.340843069     1.060778680
 H       -0.303087727     9.054683167     1.073899681
 H       -1.773710478    13.520905429    -0.782890473
 H       -2.554975026    14.788913239     1.960971101
 H       -1.221894918    16.511370069     2.742650906
 H        0.687596490    18.030939492     2.554724891
 H        1.646079372    16.306834125    -1.296430793
 H       -0.187787223    14.722669275    -1.032980687
 H        3.923084970    18.984730128    -0.741821447
 H        2.426947797    18.575527226    -1.631175638
 H        3.521717778    17.283253285    -1.029896860
 H       -1.507112994    21.879296557     2.019489287
 H       -1.834319480    21.293879029     0.362158160
 H       -2.150284095    23.004946323     0.812100200
 H        2.279542751    23.063246002    -0.529837802
 H        2.688052184    23.730351460    -2.849007647
 H       -1.549374251    23.759258019    -3.602516256
 H       -1.975425710    23.041109562    -1.312259094
 H        1.971593379    24.302536764    -4.973178198
 H       -1.110313893    24.343740880    -5.470039382
 H       -0.470328223    22.089453360    -7.055717925
 H       -1.403862861    20.418143637    -8.560851728
 H       -1.440839028    23.274743532   -11.780451433
 H       -0.517278373    24.975976412   -10.314049817
 H       -2.200918537    19.713837428   -10.637238190
 H       -2.215243537    21.799291683   -12.926056328
 H       -2.972494205    18.236457195   -11.784547450
 H       -3.900949561    16.538343028   -13.249129833
 H       -3.963707403    19.430962005   -16.499789437
 H       -3.016379284    21.095460967   -15.001583717
 H        2.052706490    19.392802315     2.211239018
 H        3.192388982    20.080112515     1.038681269
 H        1.285040777    20.511085760    -0.589431077
 H        0.139879625    19.780404630     0.530607143
 H        0.665977173    21.545156893     2.275899667
 H        1.896868548    22.256100699     1.215093418
 H        2.267558036    -1.028503044    -0.062994509
 H        2.278963821     0.455701567     0.918579164
 H        2.270254400     0.563650919    -0.861780066
 H       -6.229419605    14.600329267   -15.815944230
 H       -6.537264027    15.844467664   -14.578431843
 H       -5.123425213    14.768431203   -14.432060161
 H       -6.612724434    17.969469733   -16.933185018
 H       -5.244061575    18.041293708   -18.073062496
 H       -6.308183046    16.615164642   -18.049983926
 H       -2.645727325    15.183004996   -16.238646511
 H       -3.677878592    14.893591809   -17.663252191
 H       -2.688965118    16.373493645   -17.560843443
 H       -1.649010109    26.518280511    -7.590192408
 H       -0.194786570    27.360242236    -6.997618888
 H       -0.362786785    26.985640927    -8.731734996
 H        2.636961376    24.146107024    -7.614279905
 H        2.304036329    25.408889918    -8.822778381
 H        2.589874739    25.861620854    -7.122491445
 H       -4.397866411    12.551529796    -2.102377228
 H       -5.812161126    12.175977635    -1.084549784
 H       -5.227868288    13.853885499    -1.214147045
 H       -4.058567901    12.667270266     2.782881348
 H       -5.119876795    13.837118786     1.950865982
 H       -5.555379279    12.109385826     1.999017569
 H       -0.301264344    -0.361601891    -2.446907620
 H       -0.189447624    -1.915961807    -1.582535739
 H       -1.704501110    -0.982078892    -1.541616510
 H       -0.283419196    -0.353507767     2.450964838
 H       -1.733850452    -0.877333727     1.562526369
 H       -0.279745942    -1.908831293     1.579492183

