139   

Si        0.000000000     0.000000000     0.000000000
 C        1.869119153     0.000000000     0.000000000
 C       -0.658812802     1.724189870     0.000000000
 C        0.165825256     2.823297534    -0.257480647
 C       -0.354142651     4.117823643    -0.252240536
 C       -1.709393300     4.342008994     0.002809882
 C       -2.535721690     3.238540463     0.255916291
 C       -2.019253299     1.945866986     0.253725321
 C       -2.299018553     5.676645562     0.018968274
 C       -1.622825591     6.816419928    -0.204206534
 C       -2.218202094     8.148934464    -0.186730259
 C       -1.398483805     9.257658240    -0.436355611
 C       -1.922977288    10.547947960    -0.429881783
 C       -3.284838389    10.757789659    -0.182840490
 C       -4.106056970     9.652777123     0.065414441
 C       -3.576019668     8.363289734     0.066638557
Si       -3.995655657    12.460381574    -0.170689592
 C       -5.776112711    12.333452097    -0.577234431
 C       -6.791170118    12.726403856     0.203543924
 C       -8.201654214    12.602128304    -0.170141836
 C       -9.186346721    13.045979397     0.723619310
 C      -10.533294674    12.948665169     0.413254142
 C      -10.946248686    12.442500054    -0.837627555
 C       -9.957954382    11.998396069    -1.735744056
 C       -8.613916429    12.060816250    -1.390580864
 N      -12.318166010    12.346181975    -1.146952168
 C      -13.214997970    13.338748933    -0.527633106
 C      -12.662399918    12.072792228    -2.552688407
 C      -12.888276657    14.785934146    -0.930748831
 C      -13.600840169    15.788616631    -0.006765543
 N      -12.967167387    17.122896833    -0.000810963
 C      -11.616577125    17.146310899     0.422739649
 C      -11.243307193    16.397265940     1.558440504
 C       -9.929931152    16.398595542     1.999226632
 C       -8.952518012    17.174578078     1.359099752
 C       -9.331140754    17.936378722     0.251257585
 C      -10.641318682    17.932380091    -0.213024311
 C      -13.288929425    17.900193321    -1.209918404
 C       -7.577605329    17.142318311     1.862577698
 C       -6.569808571    17.843143324     1.326576862
Si       -4.835900276    17.839401593     1.915366297
 C       -4.377353843    19.558942749     2.397626450
 C       -5.367283676    20.482012849     2.750408238
 C       -5.023836980    21.783083039     3.115571004
 C       -3.686164028    22.187422625     3.143877601
 C       -2.696488438    21.258885340     2.794368797
 C       -3.035978539    19.959414486     2.426037653
 C       -3.280863655    23.538203090     3.519620166
 C       -4.128809681    24.518587609     3.874476262
 C       -3.726139752    25.869972117     4.250589080
 C       -2.390202899    26.279646405     4.277301692
 C       -2.051169943    27.581915009     4.643269172
 C       -3.042462185    28.502247081     5.000341545
 C       -4.381899550    28.093721502     4.975447291
 C       -4.718151867    26.794995595     4.601841499
Si       -2.597440115    30.227369295     5.485468256
 C       -0.887935617    30.261276735     6.241857687
 C       -2.632234249    31.295557740     3.952776195
 C       -3.825502251    30.874918862     6.737578956
 C       -4.616525547    16.721211708     3.394955820
 C       -3.760229312    17.252144282     0.505297163
 C       -3.725311477    13.191988689     1.525217904
 C       -3.177553374    13.529570775    -1.466087780
 C       -0.624812487    -0.869234603    -1.531762089
 C       -0.606271497    -0.887205286     1.530015043
 H        1.233459462     2.710734402    -0.464926148
 H        0.310452855     4.956771423    -0.450918151
 H       -3.594634499     3.391244693     0.457092921
 H       -2.712444208     1.125195860     0.458696956
 H       -3.371988272     5.699167492     0.232860641
 H       -0.550439900     6.796612517    -0.418294802
 H       -0.338908672     9.112006937    -0.637301260
 H       -1.235642449    11.374453052    -0.628619520
 H       -5.178340125     9.759163327     0.263161226
 H       -4.235084325     7.519738186     0.264833936
 H       -5.962904062    11.885567990    -1.567246355
 H       -6.641998905    13.183162836     1.190574045
 H       -8.891959879    13.473963626     1.682771086
 H      -11.267657184    13.282230632     1.141172544
 H      -10.228629257    11.595369781    -2.706144447
 H       -7.871450775    11.693903090    -2.101442996
 H      -13.757864388    12.021760237    -2.668284668
 H      -12.268028111    11.080017145    -2.836714954
 H      -12.272965856    12.827326889    -3.255119539
 H      -14.372581440    17.841623887    -1.407687669
 H      -12.752547769    17.564476293    -2.111779108
 H      -13.056194578    18.965082340    -1.027886027
 H      -11.987073849    15.812000155     2.092341733
 H       -9.658530103    15.796231734     2.866458219
 H       -8.590836231    18.546700726    -0.268935269
 H      -10.888929130    18.533247644    -1.082376901
 H       -7.448353557    16.482295963     2.729987639
 H       -6.732152904    18.494501941     0.452005220
 H       -6.431246863    20.221510295     2.747841087
 H       -5.812813022    22.484404351     3.382047316
 H       -1.649019237    21.553927689     2.809762031
 H       -2.221647797    19.279550308     2.161407719
 H       -2.201796091    23.715976748     3.495492284
 H       -5.208067927    24.340355412     3.898934196
 H       -1.599377593    25.581113898     4.009661642
 H       -0.989503570    27.843897119     4.642205734
 H       -5.199011319    28.768671945     5.244836188
 H       -5.765095766    26.497263400     4.586343143
 H      -14.263906443    13.085749342    -0.798787582
 H      -13.154697891    13.212597669     0.578696576
 H      -11.788539329    14.944162383    -0.878350385
 H      -13.157477579    14.967686358    -1.984759059
 H      -14.666425877    15.904553374    -0.301731792
 H      -13.620526569    15.414080633     1.042513938
 H        2.266567634    -1.029634593     0.048334526
 H        2.271801538     0.551072202     0.868871722
 H        2.277171761     0.467824134    -0.913333635
 H       -0.627484223    31.275339091     6.593896994
 H       -0.113190581    29.954738427     5.517575764
 H       -0.821549992    29.581148750     7.110336987
 H       -1.915827836    30.933486535     3.193534143
 H       -3.633499837    31.295526190     3.485662098
 H       -2.371676652    32.342939601     4.185573001
 H       -3.888623689    30.208680699     7.617076219
 H       -3.534588693    31.876833046     7.100386849
 H       -4.840123517    30.960206575     6.311013408
 H       -5.231324546    17.061290673     4.248273465
 H       -4.906364204    15.680149746     3.165811823
 H       -3.565522758    16.708943309     3.735179252
 H       -3.769006287    17.971272555    -0.333514459
 H       -2.711130207    17.116595302     0.819132473
 H       -4.118817873    16.283069630     0.110603455
 H       -4.182374234    12.563748122     2.311066941
 H       -2.649491247    13.279205833     1.759301530
 H       -4.166755335    14.201840626     1.600412539
 H       -3.232110637    13.062599482    -2.466027805
 H       -3.670656405    14.516628527    -1.536107068
 H       -2.112239901    13.704470284    -1.237172960
 H       -0.277826151    -0.362268350    -2.450365307
 H       -0.272097760    -1.914624577    -1.573883942
 H       -1.728839461    -0.886865947    -1.563587715
 H       -0.292289447    -0.358421832     2.448422195
 H       -1.707720142    -0.959632911     1.550655501
 H       -0.204533066    -1.914407458     1.583691571

