139   

Si        0.000000000     0.000000000     0.000000000
 C        1.869398133     0.000000000     0.000000000
 C       -0.652878338     1.726471863     0.000000000
 C        0.177614071     2.820937468    -0.258896892
 C       -0.335349643     4.118162328    -0.254234740
 C       -1.688660932     4.350475758     0.004410508
 C       -2.520482905     3.251744821     0.260005651
 C       -2.011407726     1.956026368     0.256744870
 C       -2.269540141     5.689009291     0.019763019
 C       -1.585047929     6.822949848    -0.207697522
 C       -2.167105856     8.161100101    -0.192074511
 C       -1.336047323     9.260494621    -0.446822032
 C       -1.846453055    10.555907635    -0.442542755
 C       -3.205024880    10.782132718    -0.188526113
 C       -4.036454849     9.686748598     0.065889589
 C       -3.521065125     8.390955838     0.066572309
Si       -3.880984887    12.500966990    -0.183103071
 C       -5.701875201    12.388408131    -0.367599015
 C       -6.614225519    12.839737415     0.502699278
 C       -8.061979878    12.721123154     0.300791757
 C       -8.930037697    13.227513721     1.274792144
 C      -10.309403677    13.136594531     1.124312626
 C      -10.852821915    12.565682358    -0.032661474
 C       -9.987103393    12.061517895    -1.019388770
 C       -8.612831606    12.131413477    -0.843746927
 N      -12.251259061    12.423810290    -0.287167558
 C      -13.135324195    12.361395871     0.888020716
 C      -12.735590296    13.327437428    -1.347374573
 C      -13.624567830    13.712700573     1.442155318
 C      -14.161718871    13.553575796     2.879751593
 N      -13.812439525    14.674417457     3.783741190
 C      -12.401321440    14.860543687     3.883464740
 C      -11.660614681    13.836316666     4.503427761
 C      -10.285952229    13.954245478     4.632645428
 C       -9.615921522    15.100380849     4.178349792
 C      -10.360443951    16.120100332     3.580878341
 C      -11.739039069    16.010272384     3.434913580
 C      -14.592423109    15.890348513     3.492143096
 C       -8.161150356    15.182579862     4.335340188
 C       -7.436759596    16.234196629     3.933281048
Si       -5.622282367    16.424967229     4.087157907
 C       -4.995232600    16.619735204     2.360804135
 C       -5.790901563    16.217981466     1.281968197
 C       -5.332960686    16.357952768    -0.026802021
 C       -4.072019524    16.902053891    -0.286261780
 C       -3.276328808    17.301606239     0.795726587
 C       -3.730036399    17.160706620     2.105287495
 C       -3.555194593    17.065827795    -1.640995495
 C       -4.223679635    16.720619979    -2.754824559
 C       -3.716636634    16.879931655    -4.113195744
 C       -2.457943778    17.419431231    -4.390360970
 C       -2.014011028    17.553042567    -5.705826988
 C       -2.815663669    17.136936588    -6.773482694
 C       -4.076695999    16.592192426    -6.497674496
 C       -4.521250376    16.468461691    -5.184106274
Si       -2.241731777    17.307338229    -8.520164719
 C       -0.378571567    17.445702623    -8.582933692
 C       -2.769766698    15.807022555    -9.502452749
 C       -3.013705791    18.846643878    -9.244941653
 C       -5.257125030    17.945134849     5.103392858
 C       -4.826360053    14.919571322     4.849228305
 C       -3.380650606    13.345806752     1.400100396
 C       -3.202986866    13.432791465    -1.650108289
 C       -0.626286952    -0.868473211    -1.531463831
 C       -0.606977754    -0.886155569     1.530266702
 H        1.244214900     2.702735139    -0.468260697
 H        0.333417808     4.953061119    -0.456111069
 H       -3.577988401     3.410743926     0.463377040
 H       -2.708931906     1.139269138     0.462236297
 H       -3.341511680     5.719851407     0.236492531
 H       -0.513245565     6.792864534    -0.424505102
 H       -0.278817012     9.102329221    -0.650338066
 H       -1.150847929    11.374689086    -0.646634597
 H       -5.105236015     9.805336517     0.272799538
 H       -4.188286847     7.555280886     0.269699754
 H       -6.008715228    11.896807372    -1.306084752
 H       -6.343827325    13.336285017     1.444169620
 H       -8.526309142    13.699898065     2.173502096
 H      -10.955836426    13.527504913     1.908516004
 H      -10.405066342    11.599199908    -1.911309863
 H       -7.958885717    11.722006573    -1.614167725
 H      -13.785557271    13.083073464    -1.578868006
 H      -12.145772272    13.160904881    -2.265561305
 H      -12.667688726    14.395012115    -1.085682383
 H      -15.663102696    15.662291866     3.636449802
 H      -14.456152373    16.286356226     2.474354801
 H      -14.330215129    16.677305333     4.220800177
 H      -12.174837063    12.955895037     4.884151340
 H       -9.722449182    13.147934273     5.103090171
 H       -9.862631160    17.019890167     3.215402293
 H      -12.287640590    16.817603156     2.958657353
 H       -7.720872400    14.300501610     4.816865139
 H       -7.919617675    17.106741270     3.459656898
 H       -6.788753097    15.784164939     1.419249363
 H       -5.971301014    16.032190758    -0.847972730
 H       -2.291495234    17.727286484     0.614027160
 H       -3.066956574    17.490087434     2.909169641
 H       -2.554680711    17.502727594    -1.701926780
 H       -5.227198102    16.286179622    -2.690217279
 H       -1.811491055    17.744542901    -3.577112754
 H       -1.022111363    17.986807203    -5.859818673
 H       -4.746218946    16.249523517    -7.291536587
 H       -5.504929733    16.044016953    -4.989717678
 H      -14.013982687    11.744245502     0.583010885
 H      -12.611978066    11.780323617     1.682314303
 H      -12.794739458    14.446518083     1.417950782
 H      -14.403495724    14.136908663     0.786139052
 H      -15.267523652    13.445577749     2.871144499
 H      -13.770503529    12.620727032     3.347110758
 H        2.267688962    -1.028668247     0.059360912
 H        2.271602310     0.560506814     0.863022096
 H        2.277200607     0.458253177    -0.918257386
 H       -0.016391959    17.478297696    -9.626125188
 H        0.104233453    16.581479740    -8.091887343
 H       -0.018422758    18.360879289    -8.081053086
 H       -2.381729544    14.876367313    -9.049667984
 H       -3.868818518    15.717359313    -9.555096586
 H       -2.391687363    15.854372191   -10.539184281
 H       -2.715122623    19.749358673    -8.681865428
 H       -2.709668862    18.992976348   -10.296320755
 H       -4.116964503    18.794068075    -9.219924769
 H       -5.656917122    18.857984096     4.625365231
 H       -5.710894239    17.873535173     6.108710146
 H       -4.171291988    18.092295669     5.239867238
 H       -5.021958260    14.010322245     4.250201744
 H       -3.729843902    15.036465111     4.918366053
 H       -5.204546108    14.736076454     5.870625303
 H       -3.810083754    12.846385784     2.286099591
 H       -2.283559200    13.354776093     1.524243504
 H       -3.720452239    14.400841233     1.408150235
 H       -3.455348503    12.936774800    -2.604034612
 H       -3.613954127    14.459965312    -1.690777563
 H       -2.103871743    13.523864244    -1.602280365
 H       -0.280684752    -0.360424306    -2.450046596
 H       -0.273207848    -1.913634026    -1.574971265
 H       -1.730342138    -0.886425555    -1.561998774
 H       -0.277609986    -0.366844278     2.448698384
 H       -1.709182080    -0.942253886     1.559539047
 H       -0.220072146    -1.919396846     1.575520311

