139   

Si        0.000000000     0.000000000     0.000000000
 C        1.869199430     0.000000000     0.000000000
 C       -0.656874094     1.725046713     0.000000000
 C        0.183148602     2.829179987    -0.171346613
 C       -0.336449082     4.123894416    -0.167732222
 C       -1.705499623     4.343701491     0.003775000
 C       -2.546647531     3.235368988     0.172968515
 C       -2.031010245     1.942322369     0.170491205
 C       -2.294101211     5.678993474     0.014536646
 C       -1.602318393     6.821276036    -0.135738886
 C       -2.192045384     8.156154727    -0.124806109
 C       -1.352099820     9.265252105    -0.293165729
 C       -1.869428562    10.558231674    -0.289766017
 C       -3.243559446    10.771162726    -0.125579706
 C       -4.084509060     9.666060318     0.041980210
 C       -3.562170297     8.373183676     0.045374588
Si       -3.937927026    12.480846355    -0.119775113
 C       -5.713463650    12.379841134    -0.559057536
 C       -6.730577780    12.785775981     0.212323687
 C       -8.140316530    12.690204304    -0.170372391
 C       -9.119771241    13.149176222     0.722587862
 C      -10.466802165    13.081254798     0.408527600
 C      -10.884206003    12.587080302    -0.847326578
 C       -9.901661857    12.125718568    -1.744402291
 C       -8.558013587    12.159908774    -1.393655480
 N      -12.252127956    12.523815581    -1.152275418
 C      -13.135612771    13.546893905    -0.566491436
 C      -12.621793648    12.112094666    -2.513800740
 C      -12.745621494    15.003166185    -0.871339697
 C      -13.182763938    15.491227344    -2.263057036
 N      -14.598288120    15.883915505    -2.376882753
 C      -15.078873121    16.857435375    -1.487053857
 C      -14.217770727    17.884419218    -1.040723885
 C      -14.676866954    18.852103788    -0.162925639
 C      -16.011758344    18.868145913     0.267877318
 C      -16.869503261    17.869155480    -0.198657678
 C      -16.422432318    16.880945800    -1.066800585
 C      -15.505939677    14.781210910    -2.723704512
 C      -16.441255273    19.914683679     1.196189289
 C      -17.685671206    20.034947930     1.677652399
Si      -18.234210288    21.340638656     2.839819790
 C      -16.822009378    22.457473342     3.243861408
 C      -16.335194845    22.588684586     4.547141459
 C      -15.265555172    23.441368619     4.822155497
 C      -14.656943708    24.175780234     3.801315878
 C      -15.145281493    24.041111858     2.494266865
 C      -16.214101841    23.193935318     2.217184358
 C      -13.536369020    25.079190688     4.041611347
 C      -12.974682765    25.299265183     5.242442070
 C      -11.854034056    26.202857250     5.482187422
 C      -11.247839345    26.939761154     4.460178255
 C      -10.179144003    27.791752495     4.733879966
 C       -9.694305703    27.929733925     6.040131018
 C      -10.299785586    27.193556645     7.064682327
 C      -11.365283747    26.339693507     6.787529020
Si       -8.277511850    29.065057109     6.375309413
 C       -8.627523203    30.725750759     5.591700048
 C       -8.034972813    29.295636678     8.214259406
 C       -6.733882599    28.319235180     5.631590170
 C      -19.589547994    22.344806011     2.035919865
 C      -18.895803085    20.516111128     4.380673246
 C       -3.684225800    13.218576488     1.576490012
 C       -3.082053274    13.530090636    -1.407426489
 C       -0.622906166    -0.870859813    -1.531622447
 C       -0.609702412    -0.882688304     1.530993765
 H        1.262307179     2.720879222    -0.310120037
 H        0.339768330     4.966522887    -0.301171187
 H       -3.616469818     3.384523090     0.308135266
 H       -2.736040844     1.117437247     0.306727631
 H       -3.378550884     5.699367674     0.158620901
 H       -0.518072755     6.801245308    -0.279478406
 H       -0.282244653     9.117560109    -0.427052245
 H       -1.166284139    11.384655761    -0.423497344
 H       -5.166430038     9.774728096     0.174908955
 H       -4.236442896     7.529229392     0.180472021
 H       -5.894822115    11.942498229    -1.554294773
 H       -6.581705079    13.227438380     1.206732948
 H       -8.819080046    13.557864177     1.688364108
 H      -11.200541168    13.412125227     1.138370745
 H      -10.176535181    11.731544191    -2.716885658
 H       -7.819065268    11.779285980    -2.101175303
 H      -13.718986786    12.095546804    -2.620910151
 H      -12.270689905    11.076384386    -2.684035955
 H      -12.201514122    12.759318704    -3.301234800
 H      -15.013881718    14.091669440    -3.429310083
 H      -16.388975268    15.194181929    -3.247735629
 H      -15.853916838    14.202969530    -1.851930082
 H      -13.186840946    17.920905416    -1.381567137
 H      -13.988592701    19.623278439     0.187509715
 H      -17.913073254    17.858454725     0.119339470
 H      -17.124448408    16.125300999    -1.402080119
 H      -15.630320178    20.605620327     1.471306708
 H      -18.479799279    19.328988591     1.391077102
 H      -16.767745677    22.037126825     5.386284961
 H      -14.906495088    23.527827295     5.846029252
 H      -14.685332756    24.605258919     1.684921122
 H      -16.553684132    23.131057773     1.178367770
 H      -13.162274977    25.590805594     3.149813133
 H      -13.348751073    24.788012475     6.134452311
 H      -11.608272553    26.852434595     3.436748319
 H       -9.745550726    28.340485352     3.892899102
 H       -9.964124712    27.261121579     8.103148066
 H      -11.822015388    25.774785876     7.598187283
 H      -14.179077304    13.347315317    -0.894740268
 H      -13.142362584    13.387259717     0.539406645
 H      -13.177155140    15.664329054    -0.091342385
 H      -11.646832113    15.123744649    -0.774096609
 H      -12.567922291    16.377167374    -2.556052131
 H      -12.963525480    14.718522310    -3.031848789
 H        2.266872357    -1.029992284     0.038628410
 H        2.272660483     0.542701854     0.873662670
 H        2.276313531     0.476140361    -0.909535492
 H       -7.827485231    31.452811981     5.817077853
 H       -9.577710622    31.150137447     5.964254315
 H       -8.707885728    30.649585953     4.493177714
 H       -8.947522189    29.692298899     8.694472991
 H       -7.778000057    28.344852237     8.713846499
 H       -7.216344473    30.008002540     8.421668069
 H       -6.838887015    28.176227598     4.541408679
 H       -5.853412696    28.963643467     5.801154513
 H       -6.514092444    27.330386748     6.073465906
 H      -19.243742843    22.810115228     1.095284113
 H      -20.466737424    21.719513590     1.794034115
 H      -19.931236068    23.157681244     2.701873472
 H      -18.123780062    19.891981358     4.866386674
 H      -19.243259782    21.260067434     5.119230976
 H      -19.750981543    19.857211969     4.146789995
 H       -4.187923272    12.617539329     2.355536721
 H       -2.611861321    13.261812844     1.838744811
 H       -4.083207958    14.246884341     1.633045824
 H       -3.146066414    13.069031136    -2.409572344
 H       -3.542959619    14.532365021    -1.473788245
 H       -2.012655474    13.670894865    -1.172931382
 H       -0.273926970    -0.364648946    -2.449969812
 H       -0.270086301    -1.916273979    -1.572368155
 H       -1.726782503    -0.888762918    -1.565500964
 H       -0.274168098    -0.366615518     2.449046233
 H       -1.712340984    -0.929338558     1.562867379
 H       -0.231058122    -1.919055069     1.574586732

