139   

Si        0.000000000     0.000000000     0.000000000
 C        1.869296175     0.000000000     0.000000000
 C       -0.649695007     1.728028173     0.000000000
 C        0.144436328     2.800114669    -0.419197488
 C       -0.358846098     4.101007915    -0.414232640
 C       -1.666959864     4.359255809     0.003943986
 C       -2.462916220     3.283215846     0.419136859
 C       -1.963043113     1.983743779     0.415858088
 C       -2.236747409     5.702447500     0.026383850
 C       -1.584295823     6.817430169    -0.343598701
 C       -2.156445422     8.159715485    -0.320225603
 C       -1.363727264     9.238489544    -0.733943165
 C       -1.867508014    10.536689903    -0.728456789
 C       -3.174750903    10.789677782    -0.294094116
 C       -3.966984710     9.714333573     0.121112389
 C       -3.464091086     8.413879057     0.102823822
Si       -3.840640824    12.510179475    -0.287457153
 C       -4.505417997    12.904978790    -1.945965893
 C       -4.493595980    12.053132961    -2.979911762
 C       -5.021846179    12.357858873    -4.309127796
 C       -4.946169726    11.372856029    -5.303646359
 C       -5.429836629    11.604308120    -6.580540593
 C       -6.063606173    12.826734616    -6.893616735
 C       -6.139009671    13.815941591    -5.894965692
 C       -5.600753847    13.587068184    -4.635458527
 N       -6.549683315    13.046954066    -8.195202139
 C       -7.056819749    11.870954513    -8.929846679
 C       -7.347791449    14.265389186    -8.406160391
 C       -8.076530885    11.001962649    -8.170880865
 C       -9.517057063    11.543455049    -8.248257160
 N      -10.271218843    11.457399001    -6.977465099
 C       -9.808921402    12.391023002    -5.998941699
 C      -10.128406882    13.741824923    -6.226385777
 C       -9.717406709    14.710631525    -5.325236970
 C       -9.006701190    14.361521022    -4.166365870
 C       -8.712618272    13.015445977    -3.936680680
 C       -9.114477658    12.032928407    -4.837282092
 C      -10.421335985    10.072816084    -6.496570098
 C       -8.602546499    15.435328249    -3.256326378
 C       -7.922382091    15.260582835    -2.115813582
Si       -7.436946150    16.638504964    -1.005359104
 C       -8.030503036    18.233787193    -1.715989008
 C       -7.548525834    18.645939756    -2.965407826
 C       -7.977452195    19.845492329    -3.528932771
 C       -8.898840868    20.659183258    -2.861725547
 C       -9.380058088    20.243995905    -1.613989812
 C       -8.951466447    19.045295031    -1.046430877
 C       -9.375096931    21.922838954    -3.414733365
 C       -8.992122636    22.431600874    -4.598142746
 C       -9.467252679    23.694981849    -5.152739624
 C      -10.386086775    24.512267981    -4.489312686
 C      -10.812809848    25.712536991    -5.057448954
 C      -10.324475699    26.124906763    -6.301128525
 C       -9.403155700    25.307090701    -6.968701382
 C       -8.983365909    24.106611348    -6.401961867
Si      -10.877739143    27.710493175    -7.068905456
 C      -11.633649638    28.832205759    -5.778719568
 C       -9.410038680    28.574659669    -7.839592001
 C      -12.147557497    27.316909436    -8.381694449
 C       -8.170387798    16.324209613     0.682366599
 C       -5.573520237    16.702166094    -0.880629963
 C       -5.223855127    12.672850204     0.960657822
 C       -2.485998098    13.727303855     0.132633301
 C       -0.628619258    -0.863871545    -1.532996494
 C       -0.603031094    -0.894311254     1.527109434
 H        1.175290846     2.661236459    -0.756601057
 H        0.281061135     4.918281215    -0.742321361
 H       -3.484790903     3.462334551     0.748656445
 H       -2.631090276     1.185461599     0.750991949
 H       -3.271897500     5.753680685     0.377093929
 H       -0.549155462     6.767117077    -0.693804262
 H       -0.342694266     9.062411727    -1.067408228
 H       -1.204717268    11.337163154    -1.070337058
 H       -4.995245572     9.850714241     0.468087679
 H       -4.102450696     7.593943307     0.426624639
 H       -4.923830716    13.918395389    -2.041969518
 H       -4.078711811    11.036841908    -2.905223452
 H       -4.486801658    10.409843754    -5.075486629
 H       -5.314887955    10.837013703    -7.340040121
 H       -6.623766278    14.768293088    -6.088608741
 H       -5.663267841    14.378014141    -3.884761468
 H       -7.678597476    14.326408133    -9.455235654
 H       -6.709007970    15.148794584    -8.220169360
 H       -8.235663874    14.328670674    -7.752473021
 H      -10.969814772     9.495183484    -7.260547176
 H      -11.038572419    10.073088011    -5.580699505
 H       -9.474647932     9.553613286    -6.282651286
 H      -10.710531034    14.013166381    -7.104737374
 H       -9.965259359    15.755776820    -5.513339000
 H       -8.153058203    12.721290094    -3.046899194
 H       -8.862097202    10.994783194    -4.640001623
 H       -8.925786504    16.428590871    -3.605121121
 H       -7.612490259    14.260789437    -1.774991743
 H       -6.825061265    18.052028671    -3.534119897
 H       -7.587367657    20.146296516    -4.499659455
 H      -10.098057111    20.862178858    -1.078069542
 H       -9.362678000    18.772686262    -0.070660709
 H      -10.092997781    22.456787818    -2.785089602
 H       -8.274038569    21.898024047    -5.227814026
 H      -10.778876553    24.216392393    -3.518086676
 H      -11.534807567    26.307691427    -4.491408348
 H       -8.987716422    25.577219838    -7.943564585
 H       -8.269198736    23.483448763    -6.937084352
 H       -7.483863629    12.209952584    -9.898876474
 H       -6.167746718    11.249739511    -9.198363310
 H       -8.041899683     9.969884493    -8.563678679
 H       -7.768055930    10.916251728    -7.106836782
 H       -9.519074312    12.606649969    -8.575235310
 H      -10.099063128    10.985919280    -9.015172797
 H        2.267164903    -1.028134963     0.071221796
 H        2.270672378     0.570505964     0.857055031
 H        2.278739157     0.448080338    -0.922366771
 H      -11.898610494    29.813997926    -6.210408551
 H      -10.931278697    29.015839569    -4.945600478
 H      -12.556069696    28.401227550    -5.351446247
 H       -8.617796663    28.759175173    -7.091224704
 H       -8.964258499    27.977771924    -8.654208404
 H       -9.699183056    29.551942003    -8.265187288
 H      -13.024130427    26.800393050    -7.950389652
 H      -12.511159607    28.233593451    -8.878364943
 H      -11.729346347    26.656764987    -9.162489647
 H       -9.272416590    16.252327773     0.635800553
 H       -7.799580984    15.376416638     1.112538403
 H       -7.915923186    17.131792739     1.391263370
 H       -5.093998842    16.645322993    -1.874480010
 H       -5.242436265    17.644305770    -0.407048405
 H       -5.179386988    15.871430417    -0.270448824
 H       -6.100936720    12.064042113     0.677234417
 H       -4.895912676    12.344415223     1.962850200
 H       -5.564966411    13.719605397     1.049324714
 H       -1.696761886    13.739472645    -0.640213791
 H       -2.878625493    14.755981430     0.217089650
 H       -2.006599697    13.472925824     1.094830152
 H       -0.282135134    -0.355685430    -2.451027702
 H       -0.278351956    -1.910027807    -1.577956566
 H       -1.732818555    -0.879017723    -1.562864088
 H       -0.296280991    -0.363904327     2.447045278
 H       -1.703463548    -0.979897726     1.544685422
 H       -0.190559357    -1.917464868     1.580591604

