139   

Si        0.000000000     0.000000000     0.000000000
 C        1.869145259     0.000000000     0.000000000
 C       -0.659721553     1.723758887     0.000000000
 C        0.177659787     2.830711486    -0.165429831
 C       -0.346068262     4.123836459    -0.161649085
 C       -1.716294780     4.339061174     0.006144766
 C       -2.554673151     3.227718710     0.169768658
 C       -2.035307657     1.936287537     0.165500359
 C       -2.310088263     5.671923572     0.017073413
 C       -1.623713120     6.817935044    -0.129472751
 C       -2.221751381     8.149197911    -0.117911343
 C       -1.388953859     9.264305115    -0.281993924
 C       -1.915259529    10.553620028    -0.277687443
 C       -3.291218748    10.756944121    -0.116578716
 C       -4.124793878     9.645979431     0.047344213
 C       -3.593634743     8.356743333     0.050215565
Si       -3.995096502    12.462810976    -0.109946182
 C       -5.782430137    12.349665171    -0.484778323
 C       -6.783808924    12.757676796     0.305782809
 C       -8.198585341    12.638077431    -0.054674696
 C       -9.175404148    13.095274115     0.842133686
 C      -10.524084665    13.000465357     0.539275305
 C      -10.939739816    12.464148242    -0.697639864
 C       -9.963695943    12.005544786    -1.597966404
 C       -8.616660603    12.083272251    -1.266625669
 N      -12.321616178    12.382933657    -0.972033356
 C      -13.120630044    13.591685818    -0.693112126
 C      -12.714547764    11.690464064    -2.209524765
 C      -12.480714770    14.922602111    -1.119385189
 C      -12.120882788    14.950206081    -2.615292496
 N      -11.459412699    16.190088761    -3.071390789
 C      -10.197016588    16.397940849    -2.413372695
 C       -9.066561472    15.858617957    -3.043346740
 C       -7.813235054    16.019172741    -2.467035975
 C       -7.665359595    16.692033168    -1.245881560
 C       -8.800545182    17.225092049    -0.627428873
 C      -10.056669002    17.093906719    -1.207514550
 C      -12.346056820    17.368431581    -3.020688020
 C       -6.324368781    16.841099226    -0.669324228
 C       -6.090498219    17.467800503     0.490546321
Si       -4.469326734    17.714673877     1.305123044
 C       -4.588368060    16.887304260     2.951029093
 C       -5.549837584    15.890757139     3.155403757
 C       -5.657464294    15.252939114     4.389763737
 C       -4.799347884    15.586564152     5.441523994
 C       -3.833497876    16.579934248     5.231986365
 C       -3.727668557    17.224326466     4.001307264
 C       -4.877297192    14.944086469     6.749392113
 C       -5.757169782    13.981275894     7.073131079
 C       -5.840307007    13.334974132     8.378654201
 C       -4.992110775    13.665185641     9.439326453
 C       -5.107287784    13.021248744    10.670717674
 C       -6.069665799    12.024707567    10.866320184
 C       -6.919666887    11.691261861     9.804587414
 C       -6.807210429    12.340917358     8.577768891
Si       -6.221251807    11.172639305    12.497502302
 C       -4.545680554    11.067714525    13.320030527
 C       -7.392673640    12.158217131    13.568896634
 C       -6.886909328     9.442295006    12.257881925
 C       -3.044356262    17.004015513     0.338565719
 C       -4.217566341    19.552740940     1.529119775
 C       -3.687003205    13.188373166     1.580640630
 C       -3.198698871    13.514158465    -1.434279286
 C       -0.622668211    -0.872856974    -1.530682811
 C       -0.608756029    -0.882006599     1.531875607
 H        1.257588492     2.725716080    -0.300217622
 H        0.327811271     4.968934316    -0.291146287
 H       -3.625366396     3.373434908     0.301718296
 H       -2.738517537     1.109077011     0.296692317
 H       -3.395067469     5.687263093     0.158233651
 H       -0.539007678     6.804343903    -0.269935491
 H       -0.317774427     9.124066548    -0.412764158
 H       -1.217341563    11.385168065    -0.406503004
 H       -5.207449897     9.747127354     0.179707940
 H       -4.262443689     7.508222777     0.183518360
 H       -5.987418094    11.896947250    -1.469138690
 H       -6.619684958    13.219087051     1.288097231
 H       -8.871959396    13.531151049     1.794720115
 H      -11.266245218    13.336561455     1.258242888
 H      -10.243571982    11.596488960    -2.563276764
 H       -7.878315775    11.716652525    -1.981924174
 H      -13.808012910    11.539534312    -2.208908742
 H      -12.257253024    10.684080927    -2.223940566
 H      -12.436409616    12.220016039    -3.134290489
 H      -13.181281346    17.204707048    -3.722888699
 H      -11.787902898    18.253210122    -3.373528280
 H      -12.763768771    17.593924083    -2.028937183
 H       -9.184115068    15.321807182    -3.983692176
 H       -6.938693777    15.601094407    -2.964809831
 H       -8.709943060    17.753705722     0.321972367
 H      -10.925753688    17.523729565    -0.717293560
 H       -5.532145989    16.382267446    -1.273207329
 H       -6.920364689    17.912266960     1.068324559
 H       -6.248041915    15.585474450     2.366887275
 H       -6.417654868    14.485560056     4.527290356
 H       -3.156206957    16.853769534     6.038790188
 H       -2.957427675    17.992767012     3.896267959
 H       -4.149576489    15.304514566     7.482023722
 H       -6.483752546    13.620541950     6.338455718
 H       -4.230974483    14.432843754     9.311177578
 H       -4.416549173    13.324311897    11.462588089
 H       -7.689094321    10.919833182     9.897986021
 H       -7.477838228    12.067892844     7.764939628
 H      -14.120364488    13.482600709    -1.168106133
 H      -13.305411633    13.610093198     0.408642965
 H      -13.168185396    15.751932496    -0.874094847
 H      -11.563219777    15.103511695    -0.519874489
 H      -11.422746924    14.111401683    -2.850771741
 H      -13.028871841    14.800671417    -3.237704755
 H        2.266810666    -1.029317819     0.052726832
 H        2.272680163     0.554664647     0.866104357
 H        2.276145083     0.463874015    -0.915919156
 H       -4.598877344    10.495053164    14.263020960
 H       -4.144539096    12.067074339    13.563117198
 H       -3.811088273    10.563010806    12.666387716
 H       -7.021934199    13.186438528    13.730166451
 H       -8.391842183    12.238438121    13.104229152
 H       -7.521855969    11.689941869    14.560428235
 H       -6.259515877     8.866430365    11.553384157
 H       -6.908319983     8.886940921    13.212466262
 H       -7.916067355     9.450441372    11.858399756
 H       -3.117666583    15.904565539     0.252009633
 H       -3.004032782    17.420100222    -0.683923524
 H       -2.078686128    17.227145278     0.827083186
 H       -5.015446499    19.996818848     2.151278190
 H       -3.252975455    19.774335243     2.017891145
 H       -4.225852255    20.077480788     0.556484699
 H       -4.011276178    12.494380538     2.378912903
 H       -2.615379648    13.396183488     1.747448197
 H       -4.234703750    14.136419571     1.730916711
 H       -3.262776618    13.027089870    -2.423732499
 H       -3.697854607    14.496983423    -1.516795888
 H       -2.131087886    13.695822109    -1.222717843
 H       -0.277157259    -0.365153578    -2.449492803
 H       -0.266098228    -1.916948529    -1.572209913
 H       -1.726506261    -0.894729889    -1.562525259
 H       -0.275910650    -0.363062856     2.449289197
 H       -1.711337554    -0.931507369     1.562540710
 H       -0.227391142    -1.917207242     1.577728550

