139   

Si        0.000000000     0.000000000     0.000000000
 C        1.869578113     0.000000000     0.000000000
 C       -0.639562839     1.731794106     0.000000000
 C        0.134766695     2.784104616    -0.499455195
 C       -0.354933096     4.089896867    -0.496250393
 C       -1.630557423     4.373558132    -0.000814746
 C       -2.406942926     3.317483255     0.494502891
 C       -1.919960782     2.012873803     0.494035272
 C       -2.184127199     5.723560354     0.022508374
 C       -1.544670956     6.819883439    -0.419338593
 C       -2.097611363     8.170215010    -0.396333229
 C       -1.319316237     9.225304358    -0.890484861
 C       -1.805011883    10.530764449    -0.888922429
 C       -3.087121105    10.808612292    -0.401494140
 C       -3.867180158     9.756893546     0.092115636
 C       -3.374277690     8.453018735     0.097947834
Si       -3.752090285    12.531640383    -0.389548336
 C       -5.576116075    12.404761903    -0.520066123
 C       -6.449913756    12.864144210     0.383869244
 C       -7.904512866    12.748935349     0.253722621
 C       -8.711423677    13.273326968     1.274586365
 C      -10.091699464    13.194495329     1.207740917
 C      -10.708073387    12.517238666     0.138876189
 C       -9.908716510    11.976429125    -0.876505803
 C       -8.523958329    12.111134301    -0.822089332
 N      -12.131732398    12.474474884     0.132306807
 C      -12.701637759    11.758110338     1.292779989
 C      -12.753751522    12.074667503    -1.141509471
 C      -12.416058649    10.242706001     1.301303872
 C      -12.647558705     9.630304165     2.696549152
 N      -11.411211345     9.301374223     3.437603397
 C      -10.578120512    10.406506286     3.741098783
 C      -11.148682672    11.507199029     4.412442693
 C      -10.371828719    12.610009816     4.729661312
 C       -8.995887334    12.627043536     4.459747619
 C       -8.427211972    11.516982660     3.828313825
 C       -9.199887717    10.418109174     3.472942583
 C      -10.735084292     8.110387416     2.893600365
 C       -8.217832124    13.816791795     4.814070587
 C       -6.901299802    13.936175809     4.600094290
Si       -5.864150899    15.390392535     5.015823578
 C       -5.165696386    15.937448385     3.395138195
 C       -5.968583166    15.850519383     2.251592708
 C       -5.480611016    16.252363793     1.010311644
 C       -4.182565572    16.756543545     0.884333370
 C       -3.383571131    16.850382577     2.031464270
 C       -3.869927911    16.450011610     3.274836860
 C       -3.636048242    17.187370601    -0.397736363
 C       -4.309215598    17.143054583    -1.560069389
 C       -3.775037250    17.570385556    -2.848316184
 C       -2.481683575    18.078181428    -2.997574094
 C       -2.012487266    18.474860675    -4.249356473
 C       -2.829569946    18.375202143    -5.380561968
 C       -4.125286076    17.864286253    -5.233353121
 C       -4.589574526    17.463527444    -3.983203401
Si       -2.210612248    18.899806892    -7.039238200
 C       -0.952586784    20.269859103    -6.851203311
 C       -1.418543942    17.421150324    -7.862556463
 C       -3.630484311    19.521429333    -8.084447482
 C       -6.854899200    16.781320795     5.763116996
 C       -4.513567715    14.849004676     6.182995791
 C       -3.224906730    13.288608632     1.231794314
 C       -3.118848873    13.546064287    -1.819229082
 C       -0.630912210    -0.859749860    -1.534474035
 C       -0.604253022    -0.897602021     1.524821371
 H        1.139675449     2.625727484    -0.900472328
 H        0.269551818     4.891357189    -0.887185158
 H       -3.403386626     3.515982998     0.884886271
 H       -2.571420467     1.231018641     0.893867856
 H       -3.193290281     5.797005626     0.438040300
 H       -0.535326139     6.746359786    -0.835142241
 H       -0.322948503     9.025782066    -1.279921431
 H       -1.153530890    11.314444262    -1.285116651
 H       -4.877786629     9.917741218     0.483522214
 H       -3.997712138     7.651533084     0.489482727
 H       -5.917493649    11.906370504    -1.441413806
 H       -6.135690412    13.369854829     1.308590816
 H       -8.250010059    13.769468026     2.132073614
 H      -10.702881279    13.642798524     1.989338918
 H      -10.356199063    11.447787279    -1.712026532
 H       -7.921760545    11.694929408    -1.630221504
 H      -13.842028186    12.245326096    -1.072347219
 H      -12.583310953    11.024758041    -1.423616413
 H      -12.374325733    12.725689832    -1.949225069
 H      -11.460288825     7.280917417     2.831596732
 H       -9.942487776     7.790633946     3.593864081
 H      -10.291539554     8.259351597     1.896194041
 H      -12.202014562    11.491002656     4.679883787
 H      -10.837069316    13.466086830     5.218630423
 H       -7.359745816    11.505462845     3.597213910
 H       -8.724038243     9.587504838     2.959799042
 H       -8.819557871    14.608760566     5.277499974
 H       -6.324550559    13.115643550     4.139398426
 H       -6.997620303    15.474043869     2.288508272
 H       -6.123266931    16.165222861     0.134133413
 H       -2.371620500    17.242874666     1.954661287
 H       -3.203305101    16.546766394     4.135241925
 H       -2.610003354    17.562697243    -0.358401761
 H       -5.336806003    16.764984492    -1.594536033
 H       -1.827469589    18.170097376    -2.132438187
 H       -0.992401996    18.865081938    -4.303176047
 H       -4.808494392    17.763793046    -6.081280302
 H       -5.599274487    17.066383862    -3.889275993
 H      -12.292727622    12.226721743     2.218946585
 H      -13.797364571    11.946405172     1.304780314
 H      -13.047824653     9.734866093     0.552663560
 H      -11.371654080    10.064292535     0.975415321
 H      -13.259740180    10.310206171     3.330467332
 H      -13.244646625     8.694489901     2.608209455
 H        2.268043111    -1.028078196     0.066278880
 H        2.269758230     0.567002802     0.859992318
 H        2.279068226     0.453314382    -0.919688077
 H       -0.615643734    20.639792714    -7.835983976
 H       -0.056701101    19.931495117    -6.301960574
 H       -1.377070267    21.129350373    -6.301234343
 H       -0.571898483    17.034853261    -7.267024469
 H       -2.140459244    16.593392627    -7.982565907
 H       -1.033126656    17.676698617    -8.865202220
 H       -4.169454989    20.343036120    -7.578635038
 H       -3.272221247    19.907782488    -9.055282416
 H       -4.362874118    18.723264836    -8.297426911
 H       -7.659673988    17.117181900     5.083743675
 H       -7.324355514    16.477035385     6.715544221
 H       -6.218334882    17.659793021     5.973741340
 H       -3.866702003    14.077804310     5.726340608
 H       -3.868049377    15.694681085     6.478346090
 H       -4.935706129    14.417445302     7.109104702
 H       -3.546658632    12.671107444     2.089507127
 H       -2.127383595    13.390764808     1.289715157
 H       -3.658197744    14.298295848     1.368592050
 H       -3.395790525    13.104275471    -2.792629486
 H       -3.538138017    14.571687263    -1.791421915
 H       -2.019704196    13.645306210    -1.796527333
 H       -0.284406540    -0.350065242    -2.451612427
 H       -0.282766710    -1.906407076    -1.581810464
 H       -1.735219169    -0.872499420    -1.563209532
 H       -0.304935696    -0.364998643     2.445847206
 H       -1.704149966    -0.990590455     1.536824111
 H       -0.185531803    -1.918061980     1.580282211

