139   

Si        0.000000000     0.000000000     0.000000000
 C        1.870247756     0.000000000     0.000000000
 C       -0.581855467     1.750556595     0.000000000
 C       -1.384924297     2.254980318    -1.026639083
 C       -1.812724555     3.582314902    -1.005015338
 C       -1.464726865     4.427747760     0.051581377
 C       -0.662202547     3.919549596     1.082045575
 C       -0.220192211     2.599878613     1.054736191
 C       -1.890057311     5.821604472     0.114473510
 C       -2.645419800     6.427066527    -0.817211060
 C       -3.073997055     7.820048157    -0.760264014
 C       -2.730924775     8.673017332     0.292259763
 C       -3.163424347     9.998454414     0.304926759
 C       -3.953762583    10.496603550    -0.735849296
 C       -4.293830363     9.646506626    -1.795056277
 C       -3.851135590     8.326487435    -1.809993402
Si       -4.531098692    12.249121293    -0.728222426
 C       -3.206585399    13.184176171    -1.580202637
 C       -3.361237413    13.903123668    -2.699316649
 C       -2.277975519    14.639790121    -3.354802719
 C       -2.560497896    15.359403444    -4.525480232
 C       -1.570635431    16.072414053    -5.183104090
 C       -0.257120933    16.087348126    -4.675215835
 C        0.031940030    15.360970740    -3.511095220
 C       -0.967417235    14.637763691    -2.870858451
 N        0.717477835    16.833684370    -5.388404803
 C        0.411249529    18.272795880    -5.554470559
 C        2.115678151    16.558327945    -5.022943076
 C       -0.318153265    18.952585974    -4.378800518
 C        0.476964567    20.072983086    -3.686717215
 N        1.549820511    19.639455102    -2.768887922
 C        1.254939348    18.571161152    -1.903408601
 C       -0.003920785    18.544206588    -1.262132619
 C       -0.329733772    17.508904412    -0.403562987
 C        0.581647411    16.476532667    -0.132454062
 C        1.837347730    16.523851725    -0.741219343
 C        2.186229494    17.563134469    -1.596183559
 C        2.891719080    19.682290139    -3.366509234
 C        0.183219960    15.406806766     0.783899147
 C        0.966283524    14.372340289     1.117155924
Si        0.499469352    13.018846986     2.258937857
 C        0.585970992    11.430575800     1.326670468
 C        0.113314662    11.372173227     0.010405011
 C        0.170572938    10.180435228    -0.709711819
 C        0.692448144     9.020708502    -0.128836741
 C        1.161726464     9.081332742     1.189654472
 C        1.110605415    10.272436023     1.910177196
 C        0.773390523     7.750871514    -0.841345008
 C        0.360342428     7.556941954    -2.105049784
 C        0.443643391     6.284146545    -2.813326949
 C        0.971192178     5.130020928    -2.228450984
 C        1.032343531     3.932986790    -2.941239316
 C        0.555239511     3.862745225    -4.253685197
 C        0.016452060     5.015825464    -4.839123847
 C       -0.042113694     6.209743229    -4.125268506
Si        0.629411256     2.286405439    -5.209138393
 C        1.056210094     2.647490564    -6.992978094
 C        1.930233829     1.153703950    -4.487203442
 C       -1.044078617     1.457760673    -5.108235864
 C        1.705416035    13.020532316     3.685823302
 C       -1.240742503    13.235544402     2.901052893
 C       -6.173640583    12.403923113    -1.602740711
 C       -4.713084368    12.883838445     1.018988190
 C       -0.613081658    -0.904134976    -1.516843204
 C       -0.645163800    -0.851241542     1.533049321
 H       -1.698385918     1.640595199    -1.874867187
 H       -2.422052565     3.955827389    -1.826823382
 H       -0.379106552     4.562993412     1.912749227
 H        0.408425149     2.260882631     1.882156861
 H       -1.545045757     6.369823820     0.995784715
 H       -2.982478403     5.879835418    -1.702834355
 H       -2.111880642     8.309642106     1.111306112
 H       -2.853703879    10.618449819     1.151401660
 H       -4.903063502     9.983522256    -2.637700502
 H       -4.116438626     7.681680363    -2.645437026
 H       -2.224724421    13.108861371    -1.083081559
 H       -4.323696658    13.998000825    -3.217158818
 H       -3.572905758    15.359857770    -4.927858848
 H       -1.799233364    16.616557446    -6.095684020
 H        1.031292024    15.372532110    -3.081118960
 H       -0.716529846    14.083485972    -1.963807812
 H        2.781707438    17.044587290    -5.755034137
 H        2.298511820    15.470017443    -5.097537603
 H        2.391598433    16.889337572    -4.008966678
 H        3.041249835    20.661116382    -3.855161855
 H        3.078024738    18.890884390    -4.108798257
 H        3.652913734    19.611860755    -2.567868672
 H       -0.719703837    19.342132741    -1.440189244
 H       -1.313084416    17.498630322     0.069100244
 H        2.569452621    15.739468944    -0.539585407
 H        3.180985900    17.574206301    -2.029102687
 H       -0.835430561    15.532140741     1.175268268
 H        1.983737800    14.271864829     0.706846171
 H       -0.302603081    12.248700812    -0.497257469
 H       -0.205374063    10.158610575    -1.732388654
 H        1.573772458     8.189872951     1.657954915
 H        1.495206667    10.260475852     2.932701195
 H        1.206526418     6.927853094    -0.265411071
 H       -0.080895392     8.376283011    -2.680952301
 H        1.337711556     5.153913386    -1.203051530
 H        1.455481079     3.064928369    -2.427365480
 H       -0.372019798     5.019712610    -5.860654557
 H       -0.467379256     7.094984548    -4.594708997
 H        1.347506092    18.817990931    -5.796753762
 H       -0.226216465    18.341393178    -6.469351546
 H       -1.276361929    19.373154582    -4.741832701
 H       -0.625372389    18.194958561    -3.626079537
 H        0.905334490    20.762072634    -4.446795525
 H       -0.226925992    20.693942933    -3.078399492
 H        2.271699019    -1.028222493     0.007747089
 H        2.274472640     0.522143771     0.884976237
 H        2.271684435     0.508776891    -0.895190448
 H        1.194971778     1.715865852    -7.568935536
 H        1.993886312     3.227560242    -7.069061121
 H        0.264583119     3.231156811    -7.493923480
 H        2.924785478     1.635136790    -4.491355775
 H        1.698215407     0.876987894    -3.443473851
 H        2.012154151     0.217827562    -5.067023971
 H       -1.843214691     2.121124955    -5.483944468
 H       -1.069853014     0.530769830    -5.706466891
 H       -1.298615302     1.191626874    -4.066479631
 H        2.733063983    12.798437298     3.346986040
 H        1.729367022    14.006234691     4.185064974
 H        1.434622630    12.270345530     4.448702379
 H       -1.959426117    13.373833362     2.072049580
 H       -1.565719590    12.355205941     3.483554039
 H       -1.317045947    14.117524817     3.561144417
 H       -6.103284520    12.114649206    -2.666071973
 H       -6.936802323    11.756860096    -1.133640297
 H       -6.551532561    13.441143102    -1.565387750
 H       -3.772591205    12.798811982     1.592659025
 H       -5.013151790    13.946806075     1.027535107
 H       -5.486545845    12.315035650     1.565914223
 H       -0.239226420    -0.439290936    -2.447078183
 H       -0.275615576    -1.955770487    -1.516020278
 H       -1.716487297    -0.912561073    -1.564668343
 H       -0.281736663    -0.360848499     2.453250546
 H       -1.749778927    -0.833365841     1.565419958
 H       -0.328322305    -1.908085351     1.571172673

