139   

Si        0.000000000     0.000000000     0.000000000
 C        1.868926363     0.000000000     0.000000000
 C       -0.663108592     1.722478214     0.000000000
 C        0.171921494     2.833224956    -0.150847934
 C       -0.356476397     4.124524878    -0.147110714
 C       -1.729274669     4.333980760     0.005335523
 C       -2.565495504     3.218933076     0.154439628
 C       -2.041286735     1.929506212     0.150968799
 C       -2.328786693     5.664263752     0.015693156
 C       -1.646365416     6.814394654    -0.117005754
 C       -2.252256333     8.142183126    -0.105782392
 C       -1.424610264     9.263325424    -0.254298217
 C       -1.958820173    10.549470227    -0.249641406
 C       -3.337799639    10.743090508    -0.102259378
 C       -4.166509437     9.626291182     0.046098182
 C       -3.627325669     8.340398056     0.047144900
Si       -4.051176568    12.444194051    -0.095330780
 C       -5.839204606    12.320934512    -0.477214410
 C       -6.834317346    12.726812068     0.321982418
 C       -8.255109938    12.613030229    -0.015239391
 C       -9.208195037    13.074973486     0.906305283
 C      -10.563036681    12.990431182     0.635822569
 C      -11.010072454    12.465777107    -0.595869421
 C      -10.059665346    11.999632236    -1.518380902
 C       -8.703567128    12.057804596    -1.215226184
 N      -12.402198313    12.400443045    -0.824269975
 C      -13.147371865    13.662038114    -0.610335783
 C      -12.841924120    11.655710292    -2.014930075
 C      -12.415840750    14.950409472    -1.020308121
 C      -12.035166639    14.975748012    -2.511290332
 N      -11.017372873    15.993339587    -2.830785977
 C      -11.360424037    17.336590946    -2.592057061
 C      -12.695482756    17.763349547    -2.761974103
 C      -13.045421365    19.083394261    -2.529938147
 C      -12.082673307    20.037315494    -2.169066691
 C      -10.755949531    19.619998837    -2.033606385
 C      -10.390077415    18.297572361    -2.248501088
 C       -9.656546689    15.576777034    -2.448574622
 C      -12.509211652    21.417461165    -1.936107717
 C      -11.685901520    22.415407510    -1.587802793
Si      -12.209331271    24.145597484    -1.293964391
 C      -14.030294512    24.301588195    -1.549366908
 C      -14.567956977    24.058630958    -2.819650093
 C      -15.939174689    24.168964030    -3.041453111
 C      -16.805479699    24.518122487    -2.000724153
 C      -16.265806598    24.757305279    -0.730790306
 C      -14.894678415    24.650290202    -0.506281208
 C      -18.247244586    24.645256536    -2.186930737
 C      -18.888475258    24.443567382    -3.350538203
 C      -20.330164085    24.570504857    -3.537529624
 C      -21.197324339    24.921638058    -2.499947739
 C      -22.569951877    25.031561063    -2.723743295
 C      -23.105072144    24.792946581    -3.992708191
 C      -22.237673818    24.441196065    -5.036119527
 C      -20.868463406    24.332236142    -4.809670730
Si      -24.916277708    24.929781267    -4.322481731
 C      -25.846068240    25.365640871    -2.760859843
 C      -25.191271734    26.266755272    -5.599107700
 C      -25.533863541    23.288819809    -4.969947086
 C      -11.737348372    24.615857042     0.452044714
 C      -11.329644450    25.266335504    -2.503025770
 C       -3.753627360    13.209345944     1.581155602
 C       -3.250003852    13.484209555    -1.424848908
 C       -0.620920211    -0.872659777    -1.531521180
 C       -0.608680639    -0.883319931     1.531034060
 H        1.253767005     2.732365502    -0.273185924
 H        0.315896138     4.972519092    -0.264934723
 H       -3.638190292     3.360056930     0.274706765
 H       -2.743152663     1.099308890     0.270962056
 H       -3.415604495     5.673749874     0.143776595
 H       -0.560133098     6.807190032    -0.244831502
 H       -0.351036002     9.130482473    -0.373820037
 H       -1.264620761    11.385793326    -0.368032044
 H       -5.251066421     9.719705769     0.167060883
 H       -4.292653448     7.487011093     0.167127192
 H       -6.047172381    11.869893852    -1.461266929
 H       -6.658242115    13.180826710     1.306151928
 H       -8.879009476    13.497823951     1.856344586
 H      -11.289655926    13.320655290     1.374715492
 H      -10.367707368    11.587299473    -2.474066330
 H       -7.984216909    11.674473222    -1.940928526
 H      -13.935284353    11.508229002    -1.960873500
 H      -12.387711543    10.648200523    -2.004635407
 H      -12.602678160    12.142782041    -2.973004961
 H       -9.527252769    14.491940849    -2.611939587
 H       -9.410339272    15.784491754    -1.394201339
 H       -8.926846447    16.091222907    -3.099356606
 H      -13.460534957    17.057828570    -3.072021202
 H      -14.087249831    19.386476512    -2.644356489
 H       -9.986290701    20.341588199    -1.756113274
 H       -9.347456471    18.018003851    -2.135185868
 H      -13.591066202    21.563211170    -2.073297838
 H      -10.607025802    22.244910572    -1.452618267
 H      -13.940578654    23.779661192    -3.672370768
 H      -16.332640753    23.978851627    -4.038418551
 H      -16.922397786    25.029937047     0.093253510
 H      -14.531464230    24.847730146     0.505913176
 H      -18.801793018    24.926545074    -1.286836526
 H      -18.333867177    24.162985008    -4.250923328
 H      -20.806166648    25.113487245    -1.502286805
 H      -23.197708010    25.309365867    -1.872640575
 H      -22.599173953    24.243578228    -6.049226086
 H      -20.210232070    24.058515766    -5.632287446
 H      -14.126634246    13.601110212    -1.133213475
 H      -13.383366617    13.708346564     0.480933909
 H      -13.049907994    15.826766328    -0.779763320
 H      -11.503578044    15.081199601    -0.403224710
 H      -11.634485404    13.986375907    -2.830525215
 H      -12.932369826    15.155952216    -3.143921934
 H        2.266300637    -1.030398044     0.031472055
 H        2.273008492     0.536614111     0.877113059
 H        2.275944744     0.482301579    -0.906412698
 H      -26.933576787    25.421017476    -2.947652704
 H      -25.530204044    26.345515163    -2.360565992
 H      -25.685716821    24.611049615    -1.970200053
 H      -24.801981155    27.240020511    -5.248440645
 H      -24.680410332    26.031479232    -6.549521396
 H      -26.265084702    26.397353477    -5.820497362
 H      -25.369794004    22.481550919    -4.233090541
 H      -26.615503152    23.324260449    -5.189246469
 H      -25.014272671    22.997407681    -5.899705206
 H      -12.219930698    23.951436875     1.191659451
 H      -10.646130407    24.541232818     0.606331175
 H      -12.034813650    25.653541044     0.684845402
 H      -11.553444507    24.987580630    -3.548547681
 H      -11.638140415    26.318600914    -2.367340184
 H      -10.234051650    25.219384417    -2.374433533
 H       -4.221790529    12.611470494     2.384652275
 H       -2.673932155    13.272522220     1.807434361
 H       -4.166393640    14.232148078     1.637605404
 H       -3.345208393    13.010242341    -2.418564089
 H       -3.719932434    14.482404290    -1.487268568
 H       -2.173848962    13.634809982    -1.229875112
 H       -0.275381929    -0.364358961    -2.450017928
 H       -0.262479780    -1.916222833    -1.573116678
 H       -1.724640354    -0.896509842    -1.564270403
 H       -0.273246559    -0.367248602     2.449112134
 H       -1.711291759    -0.930823167     1.563469918
 H       -0.229259829    -1.919468563     1.574112826

