139   

Si        0.000000000     0.000000000     0.000000000
 C        1.870487939     0.000000000     0.000000000
 C       -0.639102796     1.730528017     0.000000000
 C        0.186020001     2.804593750    -0.347194401
 C       -0.309766410     4.107522838    -0.343045374
 C       -1.645652508     4.363904155    -0.021827243
 C       -2.473308367     3.285860434     0.316989276
 C       -1.975853966     1.985294570     0.333585434
 C       -2.201197596     5.713334004    -0.006646525
 C       -1.492738503     6.817849088    -0.295177823
 C       -2.018142187     8.177406419    -0.288760648
 C       -1.147912562     9.225707833    -0.613792556
 C       -1.595603384    10.544008277    -0.623552068
 C       -2.920149987    10.845853290    -0.287679400
 C       -3.790615320     9.800561611     0.042844716
 C       -3.343499656     8.480058188     0.037051314
Si       -3.515525016    12.590130632    -0.299755869
 C       -4.918106993    12.767221070    -1.461622402
 C       -5.441088033    11.778855572    -2.198777145
 C       -6.565528537    11.958784560    -3.119296684
 C       -7.036122852    10.853729209    -3.844784661
 C       -8.097750364    10.979592388    -4.726569758
 C       -8.712728693    12.232258705    -4.917857599
 C       -8.229752041    13.345042954    -4.212024852
 C       -7.158399340    13.204473430    -3.337720876
 N       -9.795214910    12.306918002    -5.831505093
 C      -10.935975975    11.417759739    -5.518048110
 C      -10.209677380    13.661653775    -6.233658900
 C      -11.294750198    11.256626505    -4.028623709
 C      -11.473493877    12.605446778    -3.309555676
 N      -11.924167960    12.508335636    -1.915265677
 C      -11.046152936    11.976956981    -0.950085493
 C       -9.703513191    11.659508235    -1.227442165
 C       -8.882231211    11.137617046    -0.236638889
 C       -9.331757556    11.008383100     1.083283845
 C      -10.655367308    11.365589312     1.366049385
 C      -11.504722672    11.834597316     0.376164087
 C      -13.334968035    12.096157535    -1.787655765
 C       -8.440372211    10.453656794     2.106087944
 C       -8.802939592    10.301287278     3.386733124
Si       -7.810808520     9.629910194     4.767312603
 C       -6.115387815     9.122439664     4.254683589
 C       -5.696210801     7.800558328     4.438834856
 C       -4.417262260     7.401126091     4.056449411
 C       -3.519378662     8.317634166     3.502906859
 C       -3.939137744     9.642072369     3.322641097
 C       -5.223558739    10.040454833     3.686321760
 C       -2.173684442     7.930416564     3.092691097
 C       -1.676734530     6.688417148     3.222628266
 C       -0.337028092     6.275430584     2.821277733
 C        0.584768097     7.155685286     2.246950310
 C        1.854433480     6.714200188     1.879409397
 C        2.226376880     5.378016907     2.071684874
 C        1.304601529     4.494561932     2.643845284
 C        0.038093624     4.940051552     3.015169213
Si        3.912471199     4.816814389     1.577362882
 C        5.188179705     5.944264478     2.346988941
 C        4.211588461     3.059782375     2.141898484
 C        4.024037638     4.890658086    -0.288447088
 C       -7.643690670    10.964234802     6.068050907
 C       -8.752170125     8.179463526     5.480676997
 C       -4.121122291    13.021817031     1.415540351
 C       -2.161822757    13.769551345    -0.812884851
 C       -0.632386415    -0.868477671    -1.528016843
 C       -0.602113507    -0.879343190     1.536577939
 H        1.236300669     2.667383785    -0.618238876
 H        0.360963426     4.929624902    -0.591176572
 H       -3.515354819     3.465053061     0.574749164
 H       -2.665770690     1.185443680     0.614191732
 H       -3.258362341     5.777640248     0.263539602
 H       -0.431187407     6.741245277    -0.554456199
 H       -0.112556269     9.009584077    -0.869626772
 H       -0.873543386    11.317640699    -0.897258214
 H       -4.834821740     9.978428391     0.321377575
 H       -4.035873482     7.682113680     0.302159961
 H       -5.323051964    13.790817688    -1.510572647
 H       -5.059548446    10.748194440    -2.172675513
 H       -6.566423535     9.878474085    -3.708845458
 H       -8.451227076    10.117074049    -5.286376172
 H       -8.679519182    14.325300379    -4.339708229
 H       -6.796104399    14.083732754    -2.802812522
 H      -10.873520890    13.581328972    -7.112500122
 H       -9.322721991    14.234499791    -6.559284146
 H      -10.732746668    14.232651089    -5.451802167
 H      -13.904486580    12.364792619    -2.691122155
 H      -13.792238937    12.644345648    -0.943611507
 H      -13.454729009    11.014634250    -1.612840495
 H       -9.290957147    11.800163205    -2.225222275
 H       -7.857022785    10.859610180    -0.492856266
 H      -11.036992319    11.275905515     2.384108284
 H      -12.523551911    12.104940227     0.635358486
 H       -7.448931132    10.174278009     1.726850246
 H       -9.813140344    10.597838809     3.720485471
 H       -6.347189102     7.037785037     4.874491500
 H       -4.121004698     6.363475035     4.200179981
 H       -3.254296903    10.368322989     2.886074123
 H       -5.500231508    11.085259850     3.516844744
 H       -1.575280902     8.732799907     2.651711715
 H       -2.285063080     5.888593077     3.656637929
 H        0.311581535     8.196605511     2.080613204
 H        2.534272861     7.448532291     1.439529419
 H        1.535933376     3.439158425     2.811992312
 H       -0.668281019     4.236326234     3.452082588
 H      -11.827551632    11.763509542    -6.084605575
 H      -10.676031651    10.414346420    -5.935265268
 H      -12.219237380    10.656260773    -3.941336390
 H      -10.512372012    10.659914523    -3.516328632
 H      -10.516363082    13.179688135    -3.310052061
 H      -12.207582996    13.237140845    -3.860036920
 H        2.267899813    -1.027071248     0.082527293
 H        2.271835318     0.580570837     0.850230708
 H        2.278502222     0.437162908    -0.928381419
 H        6.214164612     5.606756882     2.118819575
 H        5.084174886     5.971985117     3.447071646
 H        5.089797577     6.981282212     1.981317549
 H        4.115727238     2.967854868     3.238610547
 H        3.492530759     2.358184821     1.682048817
 H        5.226187756     2.720322013     1.869103823
 H        3.836583819     5.912231913    -0.663620980
 H        5.022793204     4.583049309    -0.643211821
 H        3.281646091     4.222725536    -0.761435401
 H       -7.130930251    11.856171967     5.665410276
 H       -8.629566021    11.288343474     6.443918934
 H       -7.056157182    10.605849510     6.932155090
 H       -8.894823234     7.383193033     4.728134130
 H       -8.225377413     7.739555811     6.345386086
 H       -9.755295018     8.486948486     5.826219287
 H       -4.956794375    12.364902696     1.722376085
 H       -3.315943350    12.915117629     2.163841895
 H       -4.485231234    14.063210945     1.463431771
 H       -1.798956678    13.548184329    -1.832964339
 H       -2.518500256    14.814983275    -0.813036665
 H       -1.296695846    13.716893025    -0.128913446
 H       -0.289733220    -0.362252327    -2.448623628
 H       -0.281894478    -1.914375669    -1.571919442
 H       -1.736630485    -0.884273945    -1.554345159
 H       -0.278062749    -0.351714242     2.451938525
 H       -1.703723751    -0.944204284     1.564344132
 H       -0.208793506    -1.909644336     1.588765243

