139   

Si        0.000000000     0.000000000     0.000000000
 C        1.869372076     0.000000000     0.000000000
 C       -0.628941691     1.736003165     0.000000000
 C        0.054371204     2.736375454    -0.700505078
 C       -0.416347216     4.048784949    -0.703692479
 C       -1.583785913     4.390644212    -0.015136349
 C       -2.269529943     3.386971359     0.681128051
 C       -1.799870750     2.075680145     0.688493064
 C       -2.113970079     5.749968182     0.009696004
 C       -1.553590648     6.801663265    -0.611488618
 C       -2.085411684     8.160390411    -0.585433552
 C       -3.253874780     8.498556269     0.104681512
 C       -3.727107464     9.808778081     0.103676082
 C       -3.043255636    10.811906894    -0.595639781
 C       -1.875570968    10.476649089    -1.287912795
 C       -1.402174254     9.165770792    -1.280688574
Si       -3.704038943    12.533787066    -0.571009704
 C       -3.643248164    13.181136569     1.144265334
 C       -3.181417237    12.473239605     2.183355572
 C       -3.117322285    12.955342484     3.564623927
 C       -2.605388820    12.089563508     4.543603354
 C       -2.518498014    12.486077129     5.868201362
 C       -2.976713302    13.759709048     6.251593969
 C       -3.488989594    14.628639577     5.280756955
 C       -3.541868047    14.229604992     3.948116646
 N       -2.850735665    14.089810108     7.635974870
 C       -3.798244371    13.341134187     8.491855410
 C       -2.830646277    15.532448056     7.934686247
 C       -5.267212470    13.785735838     8.354087810
 C       -6.260226389    12.609033410     8.344542505
 N       -6.445629505    11.943681307     7.039479898
 C       -6.715782670    12.772811736     5.935270718
 C       -7.481708341    13.945402897     6.114773417
 C       -7.757597818    14.773487482     5.039521349
 C       -7.326855983    14.450173479     3.745293192
 C       -6.601576338    13.269807928     3.562848510
 C       -6.310183430    12.431962248     4.631191955
 C       -5.524388360    10.818786881     6.811825728
 C       -7.649199961    15.364946905     2.650722441
 C       -7.296913979    15.172071655     1.372830345
Si       -7.700648102    16.317432152     0.003077150
 C       -8.654735488    17.758605233     0.646567263
 C       -9.905391245    17.544056153     1.239511199
 C      -10.648063713    18.614211899     1.734256900
 C      -10.158431691    19.921603427     1.652920323
 C       -8.906812899    20.133475664     1.061543228
 C       -8.162880900    19.065416082     0.563771799
 C      -10.901502259    21.071756607     2.157591892
 C      -12.108576559    21.003692327     2.744324000
 C      -12.853391093    22.152327515     3.249672396
 C      -12.368819131    23.460735884     3.168330318
 C      -13.114960557    24.529217897     3.664685061
 C      -14.368970343    24.313320648     4.246009467
 C      -14.857164920    23.003120175     4.327470014
 C      -14.106531244    21.936984102     3.838280240
Si      -15.359864189    25.725493550     4.904326126
 C      -14.954936385    27.288615721     3.962161248
 C      -17.184954152    25.364431594     4.720561475
 C      -14.936780769    25.947678780     6.710740547
 C       -6.096328549    16.871812817    -0.781285809
 C       -8.734361160    15.413174366    -1.264047579
 C       -2.702932056    13.665028531    -1.668395739
 C       -5.477958724    12.498269134    -1.157669781
 C       -0.633604595    -0.852362013    -1.537315205
 C       -0.605624837    -0.906966702     1.518457889
 H        0.971699052     2.530249504    -1.259160888
 H        0.136382515     4.809310711    -1.252574962
 H       -3.181196611     3.631044866     1.223443949
 H       -2.376956799     1.336425845     1.250788902
 H       -3.035146854     5.870403118     0.587557733
 H       -0.633138914     6.681385945    -1.190421775
 H       -3.804300622     7.735032231     0.651419718
 H       -4.646135214    10.013261155     0.663203519
 H       -1.300489761    11.218633189    -1.848602661
 H       -0.490359800     8.924184244    -1.823899433
 H       -4.016065274    14.209692578     1.265579386
 H       -2.800002679    11.445793173     2.075509592
 H       -2.256240923    11.096704560     4.258037731
 H       -2.082452741    11.826772454     6.616017284
 H       -3.857171641    15.613075639     5.556191149
 H       -3.943298451    14.920024827     3.204170483
 H       -2.522098364    15.667133274     8.985895189
 H       -3.792242416    16.047237546     7.786698291
 H       -2.067375954    16.022115025     7.304219758
 H       -5.376655431    10.252742694     7.745346663
 H       -4.536577224    11.129013184     6.427883277
 H       -5.982641855    10.122937912     6.084661833
 H       -7.859957732    14.206001732     7.098592530
 H       -8.331695445    15.686369047     5.205110751
 H       -6.248918216    12.993507492     2.566490100
 H       -5.734920543    11.529977009     4.443886803
 H       -8.216188589    16.247668605     2.982147729
 H       -6.727923850    14.281241750     1.064504030
 H      -10.339692651    16.543347824     1.333233605
 H      -11.618861169    18.422269157     2.187951989
 H       -8.506978151    21.143063113     0.987982878
 H       -7.192677081    19.292111985     0.113686375
 H      -10.399512139    22.034726355     2.025583896
 H      -12.610440201    20.040318467     2.875541375
 H      -11.398777086    23.656617746     2.714812943
 H      -12.681703234    25.529255854     3.574393559
 H      -15.830402271    22.773489094     4.770099520
 H      -14.502386598    20.925721464     3.912761789
 H       -3.692161464    12.259640248     8.254809218
 H       -3.455694733    13.459335063     9.543839186
 H       -5.528488027    14.478852141     9.173865734
 H       -5.390694767    14.380087194     7.423384284
 H       -5.963376950    11.846708403     9.097558377
 H       -7.266548008    12.970296649     8.668710804
 H        2.268645943    -1.027291429     0.072769928
 H        2.269094769     0.573095753     0.856335141
 H        2.279362601     0.449131930    -0.921442802
 H      -15.592577627    28.128752255     4.290425365
 H      -15.115830547    27.154466791     2.877063260
 H      -13.904541242    27.595314729     4.108702450
 H      -17.445285492    25.147538286     3.668620566
 H      -17.494103090    24.494957668     5.326523697
 H      -17.797012624    26.225565187     5.042892581
 H      -13.862660024    26.167139427     6.848259189
 H      -15.508170893    26.779321587     7.159048758
 H      -15.162352269    25.035277687     7.291585490
 H       -5.442003797    17.375113898    -0.046517494
 H       -5.532492918    16.015211844    -1.191774398
 H       -6.277130015    17.576645663    -1.611555334
 H       -9.680635105    15.048006502    -0.825785163
 H       -8.995710620    16.073981377    -2.109892632
 H       -8.200657531    14.538293493    -1.674893304
 H       -1.654708444    13.736512992    -1.325157404
 H       -2.690784658    13.307540345    -2.713144579
 H       -3.115234632    14.690038094    -1.673478790
 H       -6.149211507    12.042098005    -0.407952490
 H       -5.854793230    13.513209039    -1.371653694
 H       -5.572876116    11.909617415    -2.088227758
 H       -0.289800560    -0.338965341    -2.453251105
 H       -0.285919639    -1.899032817    -1.589957912
 H       -1.738218795    -0.865261883    -1.563227729
 H       -0.314668119    -0.377577665     2.443772667
 H       -1.704903149    -1.009533050     1.523088203
 H       -0.179884098    -1.924937791     1.571273287

