139   

Si        0.000000000     0.000000000     0.000000000
 C        1.870433168     0.000000000     0.000000000
 C       -0.619251328     1.738371333     0.000000000
 C        0.080142551     2.738946952     0.683727550
 C       -0.384299435     4.053233222     0.686149256
 C       -1.572704046     4.393051809     0.033160857
 C       -2.276697747     3.388298107    -0.642661189
 C       -1.803908078     2.078241258    -0.664405847
 C       -2.093989414     5.755265278     0.011255221
 C       -1.499354787     6.804504039     0.603843964
 C       -2.012909663     8.169721244     0.587322914
 C       -3.199013592     8.522835488    -0.061358830
 C       -3.651454207     9.841959085    -0.050539740
 C       -2.922154550    10.836467400     0.608495874
 C       -1.728296897    10.487571842     1.252279199
 C       -1.276912240     9.170770575     1.234930407
Si       -3.505528351    12.586830516     0.633174360
 C       -2.616096829    13.410076599    -0.740400667
 C       -1.787494153    14.454403732    -0.613569984
 C       -1.092547259    15.087696004    -1.737204385
 C       -0.246812426    16.178091015    -1.483649381
 C        0.432597189    16.810832153    -2.513164599
 C        0.279135830    16.361224263    -3.838060260
 C       -0.555659886    15.264876219    -4.094554131
 C       -1.221701457    14.632378699    -3.051542632
 N        0.999606202    17.047045227    -4.854436400
 C        0.651599096    18.479076535    -5.003906070
 C        1.116363900    16.326685703    -6.132372962
 C       -0.825076712    18.850866138    -4.763603722
 C       -1.551271262    19.438616096    -5.986067098
 N       -1.992582730    18.469883023    -7.010755166
 C       -2.573739331    17.276732843    -6.543534344
 C       -3.512711247    17.349484288    -5.490149792
 C       -4.106859447    16.199029041    -5.002134027
 C       -3.807132702    14.940556924    -5.546575384
 C       -2.905118590    14.875711581    -6.610378724
 C       -2.312806922    16.023605385    -7.125146611
 C       -1.087476411    18.378466191    -8.165078405
 C       -4.465867210    13.757458223    -4.990520741
 C       -4.259710239    12.508139751    -5.427234987
Si       -5.065922156    11.007130466    -4.755293617
 C       -3.743257499     9.886871682    -4.126479637
 C       -2.582040481    10.426146173    -3.561009774
 C       -1.574587915     9.590502799    -3.081896852
 C       -1.707541702     8.200894892    -3.153392131
 C       -2.872743881     7.663990633    -3.716328399
 C       -3.881063290     8.496207455    -4.196381025
 C       -0.682575103     7.284713715    -2.666313901
 C        0.478973594     7.662059756    -2.106064512
 C        1.496959676     6.735393689    -1.622401170
 C        1.348101882     5.347745198    -1.702019530
 C        2.343614823     4.494992710    -1.228721458
 C        3.511780304     5.013765935    -0.658484925
 C        3.661175818     6.402735217    -0.572083252
 C        2.663826596     7.252341048    -1.045768323
Si        4.816068812     3.865899788    -0.038684587
 C        4.212877117     3.104708732     1.559706093
 C        5.108436212     2.524245606    -1.307752461
 C        6.416016224     4.781969474     0.267631613
 C       -6.220057656    11.420804165    -3.347100247
 C       -6.019511301    10.190076223    -6.138444882
 C       -5.344544603    12.689876423     0.322299176
 C       -3.126820509    13.370437345     2.285542419
 C       -0.603620010    -0.901457243    -1.522426241
 C       -0.633436522    -0.851596570     1.537265851
 H        1.008235548     2.534423470     1.224976484
 H        0.192208826     4.817922431     1.206215116
 H       -3.203119579     3.631337108    -1.159093274
 H       -2.391194395     1.339605616    -1.215429481
 H       -3.033352083     5.880935097    -0.533768751
 H       -0.554884982     6.678053482     1.143188040
 H       -3.779390177     7.767965634    -0.589075926
 H       -4.583517148    10.056510053    -0.580720037
 H       -1.113742280    11.224855426     1.775874653
 H       -0.342304371     8.917618960     1.732158435
 H       -2.820185093    12.961057109    -1.727331166
 H       -1.563681054    14.922806486     0.352788804
 H       -0.119710383    16.536975773    -0.462951246
 H        1.091920763    17.649594307    -2.304589789
 H       -0.710755820    14.909970425    -5.111509525
 H       -1.871120601    13.784214561    -3.279341588
 H        1.851987234    16.845616111    -6.769467139
 H        0.168473897    16.226695749    -6.684508292
 H        1.516899471    15.314184988    -5.939542473
 H       -0.870203310    19.395147022    -8.537192837
 H       -1.595092967    17.845247036    -8.989617818
 H       -0.132250769    17.875745328    -7.948575539
 H       -3.773349927    18.314413577    -5.063486200
 H       -4.819843298    16.275361817    -4.179772671
 H       -2.664144201    13.911245778    -7.061587609
 H       -1.638643971    15.932062297    -7.970302151
 H       -5.152591183    13.994132987    -4.166638182
 H       -3.563881080    12.300767152    -6.255943738
 H       -2.421744035    11.506465761    -3.480938501
 H       -0.681933920    10.032689431    -2.640648967
 H       -2.992875984     6.584414906    -3.781569257
 H       -4.766006422     8.021118438    -4.626154639
 H       -0.924898820     6.223385192    -2.782044456
 H        0.721027106     8.721176246    -1.979407505
 H        0.443985259     4.917424509    -2.132481710
 H        2.164749372     3.418876835    -1.317803366
 H        4.551567131     6.863428646    -0.137306661
 H        2.796942271     8.329809001    -0.968360661
 H        1.289780776    19.021257579    -4.264455387
 H        0.981918991    18.829821720    -6.004026521
 H       -1.387673173    17.970876420    -4.384336297
 H       -0.882967504    19.582640031    -3.934121954
 H       -2.471885804    19.970553353    -5.639048616
 H       -0.919267272    20.215416749    -6.468628775
 H        2.268707146    -1.027735244    -0.067548093
 H        2.281031740     0.451723320     0.920239711
 H        2.270468901     0.568249533    -0.859476159
 H        4.966545038     2.421311689     1.987677402
 H        3.284551936     2.526169721     1.405003386
 H        3.997918650     3.880974157     2.315874084
 H        4.197010516     1.927281828    -1.488578567
 H        5.418983275     2.954996467    -2.277056204
 H        5.902816042     1.830189036    -0.982609272
 H        6.306617298     5.542257523     1.060706929
 H        7.217914671     4.090881571     0.582503936
 H        6.764433830     5.298029263    -0.645143923
 H       -5.706264902    12.018143247    -2.571094809
 H       -7.088986126    12.004167557    -3.699025988
 H       -6.606873759    10.506074822    -2.863906862
 H       -5.346933922     9.848903026    -6.945757691
 H       -6.584303789     9.311927171    -5.781035658
 H       -6.746198316    10.890112551    -6.588960196
 H       -5.627917053    12.240400282    -0.646447510
 H       -5.908695888    12.161104701     1.111476638
 H       -5.688261375    13.739628368     0.314224860
 H       -2.042107462    13.395057944     2.490698231
 H       -3.497778274    14.409686822     2.331506427
 H       -3.605965864    12.811054669     3.109457317
 H       -0.311051505    -0.370972959    -2.446466423
 H       -0.181050906    -1.920391575    -1.577120328
 H       -1.702966298    -1.001862580    -1.529172024
 H       -0.289200517    -0.339040469     2.453495374
 H       -1.737961044    -0.862851324     1.563704226
 H       -0.288098651    -1.898817140     1.589689676

