139   

Si        0.000000000     0.000000000     0.000000000
 C        1.869917093     0.000000000     0.000000000
 C       -0.620817690     1.737429782     0.000000000
 C        0.078297036     2.738439370    -0.683134997
 C       -0.387832274     4.052259152    -0.685283851
 C       -1.555343549     4.398991043     0.000860421
 C       -2.255154163     3.395004934     0.681766312
 C       -1.798481251     2.079141057     0.675982610
 C       -2.076774318     5.761848940     0.023551165
 C       -1.497413009     6.800524367    -0.601334024
 C       -2.000514663     8.169307257    -0.592085656
 C       -1.281416210     9.146409976    -1.294379060
 C       -1.715802298    10.467568946    -1.319121689
 C       -2.885813272    10.844957431    -0.644617910
 C       -3.603976869     9.872560405     0.055576498
 C       -3.163437928     8.548372597     0.082569234
Si       -3.415799858    12.609823649    -0.710439258
 C       -4.034566121    12.990321277    -2.391562624
 C       -5.265763922    13.414096381    -2.708733504
 C       -5.702446621    13.702674226    -4.077274446
 C       -7.012017708    14.141658870    -4.307751736
 C       -7.464417579    14.425735560    -5.590312095
 C       -6.635584390    14.197225089    -6.703839124
 C       -5.323194802    13.728567031    -6.474887418
 C       -4.870515272    13.502001616    -5.185457711
 N       -7.023182297    14.459595605    -8.027904229
 C       -8.277660044    15.163922668    -8.311206709
 C       -6.615195778    13.459234828    -9.025905761
 C       -9.593160709    14.407640853    -8.058647600
 C       -9.926387216    13.367636235    -9.144985290
 N      -10.779465911    12.252752807    -8.663113148
 C      -10.237180504    11.664225499    -7.476482909
 C       -9.049508986    10.924868670    -7.617984957
 C       -8.470001891    10.327966135    -6.509566526
 C       -9.052298737    10.454597585    -5.239082243
 C      -10.235775383    11.183713400    -5.108775058
 C      -10.833985362    11.777749264    -6.214878226
 C      -12.201680453    12.631370260    -8.579441709
 C       -8.401190804     9.805016430    -4.099895618
 C       -8.861790800     9.855251171    -2.843324453
Si       -8.045886286     9.041964507    -1.419358441
 C       -6.532573842     8.175771684    -2.014688408
 C       -6.382507226     6.794231118    -1.870262130
 C       -5.229662572     6.157103988    -2.327356814
 C       -4.219967750     6.880981382    -2.966656337
 C       -4.376393018     8.265340472    -3.117917047
 C       -5.514932349     8.908920887    -2.641207148
 C       -3.000818666     6.246862121    -3.457431845
 C       -2.747074416     4.930535960    -3.364855422
 C       -1.537346764     4.275813691    -3.847645169
 C       -0.497699172     4.971172525    -4.469395322
 C        0.641122112     4.299313095    -4.914760021
 C        0.760594059     2.916721591    -4.750049445
 C       -0.283474772     2.216037846    -4.130795584
 C       -1.418580104     2.888110133    -3.688460607
Si        2.249173490     1.991505244    -5.324620110
 C        3.538138859     3.159171045    -6.008311269
 C        2.965350439     1.067332566    -3.864004231
 C        1.730036458     0.783417555    -6.651922623
 C       -7.559241275    10.360582320    -0.188573929
 C       -9.245847416     7.846633484    -0.632409274
 C       -4.717638147    12.947207099     0.587503621
 C       -1.937968797    13.706762085    -0.372982064
 C       -0.626316146    -0.854831750    -1.540570216
 C       -0.611276322    -0.906595612     1.516283456
 H        0.996851019     2.531745085    -1.240690791
 H        0.169292588     4.809362584    -1.236026759
 H       -3.168320065     3.642636513     1.219183348
 H       -2.389104140     1.338513585     1.220796679
 H       -2.999413201     5.895425303     0.594374911
 H       -0.577449018     6.657175020    -1.177351042
 H       -0.372726839     8.869890433    -1.825382351
 H       -1.112652743    11.184552957    -1.882818217
 H       -4.526281942    10.107152312     0.593827242
 H       -3.744272358     7.806676069     0.628154669
 H       -3.273350074    12.836704835    -3.174340374
 H       -6.051766407    13.573288237    -1.959687138
 H       -7.692437447    14.277567535    -3.466299086
 H       -8.473498134    14.802927585    -5.718997342
 H       -4.652856309    13.560756313    -7.312537596
 H       -3.847153790    13.153056767    -5.039196570
 H       -7.059045784    13.683155091   -10.009001108
 H       -6.893687941    12.431020169    -8.734849869
 H       -5.517793642    13.499460281    -9.155261051
 H      -12.560563152    12.861983005    -9.597606970
 H      -12.407750414    13.497262843    -7.932813770
 H      -12.788814218    11.768715290    -8.218600573
 H       -8.603390136    10.810937640    -8.603351744
 H       -7.548858761     9.755501596    -6.627321356
 H      -10.704687630    11.293586616    -4.130773432
 H      -11.754358409    12.338823709    -6.084739803
 H       -7.484518622     9.263693066    -4.379314383
 H       -9.781398658    10.402410904    -2.589098382
 H       -7.144790089     6.172298577    -1.394568509
 H       -5.126322557     5.082717284    -2.186105120
 H       -3.594470506     8.849697545    -3.600415356
 H       -5.574806026     9.995411667    -2.773782055
 H       -2.280575998     6.927570796    -3.918089508
 H       -3.470422837     4.256943078    -2.894033197
 H       -0.569418845     6.047846445    -4.610318962
 H        1.422199110     4.895466461    -5.392701786
 H       -0.246664675     1.133649552    -3.978574335
 H       -2.217707310     2.329431899    -3.203046876
 H       -8.273328494    16.096032637    -7.692771311
 H       -8.237246110    15.506167561    -9.371780127
 H       -9.537260688    13.910488401    -7.066845439
 H      -10.421509158    15.134243550    -7.973298237
 H      -10.426678126    13.851292084   -10.009585955
 H       -8.998508435    12.903981210    -9.545914914
 H        2.270341049    -1.026479784     0.067719924
 H        2.267626123     0.569345725     0.859629165
 H        2.279459971     0.456717546    -0.918876253
 H        4.455503204     2.615877430    -6.297074004
 H        3.827754519     3.923681620    -5.265577447
 H        3.171666726     3.685911051    -6.907220583
 H        3.251586230     1.762367659    -3.053982462
 H        2.239331927     0.347463223    -3.445511190
 H        3.867644855     0.500470818    -4.151947278
 H        1.300463902     1.308268230    -7.524489741
 H        2.586549252     0.187074335    -7.011748007
 H        0.963494287     0.079067546    -6.283000697
 H       -6.947461413    11.141620542    -0.678087065
 H       -8.444430061    10.853056959     0.248538137
 H       -6.967027034     9.935606246     0.640861842
 H       -9.572924427     7.073371797    -1.351269739
 H       -8.795310629     7.331481554     0.233939459
 H      -10.153351458     8.364130503    -0.274573199
 H       -5.631372566    12.348859410     0.421191685
 H       -4.341872017    12.708066385     1.598534315
 H       -5.011563395    14.012008758     0.587855131
 H       -1.145678908    13.576011637    -1.129788973
 H       -2.226127572    14.773212376    -0.377251264
 H       -1.494925196    13.484304596     0.614162884
 H       -0.237866851    -0.371638150    -2.455085091
 H       -0.316791336    -1.914076210    -1.564739071
 H       -1.729355206    -0.827681318    -1.593718890
 H       -0.323129925    -0.376902382     2.442331225
 H       -1.710463098    -1.007467306     1.518455327
 H       -0.186947872    -1.924583480     1.572023403

