139   

Si        0.000000000     0.000000000     0.000000000
 C        1.869423592     0.000000000     0.000000000
 C       -0.642470906     1.731162562     0.000000000
 C        0.168613565     2.803343032     0.384924492
 C       -0.328026043     4.106620543     0.380796365
 C       -1.646743745     4.367429805    -0.000707297
 C       -2.459734421     3.291472548    -0.381417202
 C       -1.966078786     1.989515861    -0.380300944
 C       -2.208324966     5.714394017    -0.020051260
 C       -1.534533995     6.826599471     0.319104541
 C       -2.091063380     8.175418993     0.301552621
 C       -3.409304099     8.443258879    -0.078987957
 C       -3.899089522     9.748855815    -0.080707597
 C       -3.075504510    10.816256578     0.292166335
 C       -1.754307631    10.551916367     0.673362389
 C       -1.270529113     9.246063768     0.680231110
Si       -3.715742761    12.547056400     0.292656722
 C       -2.279711781    13.681282075     0.199623189
 C       -1.957330142    14.609041881     1.110204190
 C       -0.798654838    15.497997703     0.998877251
 C       -0.560148802    16.433220491     2.016891632
 C        0.522189322    17.295560581     1.957113083
 C        1.437800280    17.218277868     0.886492960
 C        1.201465680    16.281326758    -0.133347761
 C        0.086955686    15.452333827    -0.080509447
 N        2.530629175    18.115792194     0.860039321
 C        3.251775819    18.266886112     2.140661551
 C        3.446906039    18.002206824    -0.288042601
 C        3.804680489    16.937637122     2.678573787
 C        4.525324709    17.149525377     4.019111364
 N        5.029908116    15.892501019     4.605678675
 C        5.953471750    15.169213508     3.821930630
 C        6.939827037    15.868330674     3.093815728
 C        7.858090841    15.181040208     2.316922305
 C        7.863400790    13.779504813     2.269186949
 C        6.904971319    13.088377071     3.015047251
 C        5.967203215    13.763117084     3.786744058
 C        3.965761122    15.112784455     5.261704229
 C        8.855142591    13.101349175     1.432112071
 C        8.951279162    11.770869127     1.311835225
Si       10.173379929    10.879023819     0.278588992
 C       11.179320204     9.797941503     1.384850433
 C       11.338718149    10.127397215     2.736536253
 C       12.097044815     9.314441718     3.575227993
 C       12.718893225     8.159129049     3.083883292
 C       12.560582218     7.835858069     1.733161514
 C       11.799613972     8.645801881     0.891026869
 C       13.503105954     7.339498354     4.002057437
 C       14.145465863     6.209656512     3.660936734
 C       14.929561449     5.390350088     4.579455001
 C       15.088233274     5.713001630     5.930021417
 C       15.846845648     4.900975787     6.772555362
 C       16.457040916     3.740821019     6.284094374
 C       16.298352487     3.414640686     4.931230973
 C       15.546773799     4.231537892     4.090273075
Si       17.462324446     2.662839196     7.396178489
 C       16.852056232     2.809486568     9.157225434
 C       17.320121666     0.879209198     6.854031520
 C       19.244402428     3.215633694     7.296362588
 C        9.235151636     9.844746203    -0.962663146
 C       11.321503845    12.053898900    -0.608671391
 C       -4.784417626    12.841263446    -1.210904200
 C       -4.712998371    12.814761586     1.847771109
 C       -0.605457066    -0.890505575    -1.528197186
 C       -0.630639991    -0.862860541     1.532524257
 H        1.207940696     2.662801457     0.694686379
 H        0.326017342     4.923743539     0.680510489
 H       -3.489994209     3.472551307    -0.682248755
 H       -2.647086315     1.191264321    -0.688144932
 H       -3.252859595     5.770531202    -0.339761720
 H       -0.489643818     6.768159342     0.638846133
 H       -4.066983547     7.629215662    -0.377857424
 H       -4.938412746     9.896658121    -0.386243838
 H       -1.066708480    11.349444401     0.974914492
 H       -0.241354842     9.058895518     0.981538757
 H       -1.670496612    13.540700456    -0.708607888
 H       -2.544735118    14.775306217     2.022557985
 H       -1.243454620    16.494140991     2.864259995
 H        0.662867918    18.036370959     2.739669045
 H        1.882464434    16.188834735    -0.974032981
 H       -0.080729848    14.742709989    -0.892609159
 H        4.189810243    18.817062596    -0.243410385
 H        2.877159146    18.142289194    -1.224086220
 H        3.986414745    17.042403630    -0.336577469
 H        3.343481547    15.781999157     5.879908309
 H        4.423888227    14.379460353     5.949666093
 H        3.306682800    14.580466773     4.556405640
 H        6.983429017    16.952983077     3.137152498
 H        8.597688600    15.742812109     1.745612788
 H        6.885646864    11.997164434     2.997411971
 H        5.237976065    13.184953821     4.345836763
 H        9.523836670    13.794822427     0.905501009
 H        8.263906066    11.100115039     1.853057938
 H       10.876176340    11.018278413     3.174887282
 H       12.207042152     9.583732156     4.624246607
 H       13.032886687     6.943598370     1.326505869
 H       11.709925834     8.340947099    -0.155073861
 H       13.540810750     7.713155700     5.029746335
 H       14.108122028     5.836043876     2.633426210
 H       14.618894646     6.607124314     6.336700737
 H       15.936244602     5.207277748     7.818555595
 H       16.750966519     2.520624228     4.493519446
 H       15.437208907     3.962220330     3.041351240
 H        4.073664046    19.003063571     1.997010380
 H        2.556534351    18.727957052     2.878203513
 H        2.981819847    16.205469945     2.798112731
 H        4.495682299    16.481628045     1.943041704
 H        5.383084366    17.849178604     3.897321847
 H        3.845375855    17.632401632     4.756502148
 H        2.268479215    -1.027890197    -0.067014018
 H        2.278373004     0.451974248     0.920830963
 H        2.270288314     0.567212184    -0.859403061
 H       17.392928641     2.116392848     9.825952622
 H       15.776136893     2.567587018     9.228891494
 H       16.992560583     3.829263869     9.556281932
 H       16.264698592     0.552328078     6.830114773
 H       17.740728533     0.722123655     5.845521494
 H       17.859948441     0.207544473     7.545012749
 H       19.357490182     4.267272392     7.616115505
 H       19.894507972     2.598429303     7.940954033
 H       19.630820162     3.143102172     6.263826992
 H        8.615371228     9.078899892    -0.462141459
 H        8.558398777    10.471209120    -1.571829776
 H        9.916907644     9.321997331    -1.655736392
 H       11.882375193    12.684241702     0.105427944
 H       12.064790974    11.506390681    -1.215677873
 H       10.766018915    12.725000386    -1.287367724
 H       -4.237536782    12.614639613    -2.144182393
 H       -5.691643823    12.212636642    -1.195348750
 H       -5.111113647    13.895723161    -1.266614662
 H       -4.101484987    12.642636081     2.752315740
 H       -5.110475538    13.843917863     1.900374070
 H       -5.572584237    12.122436614     1.897291589
 H       -0.290067586    -0.364221484    -2.447524009
 H       -0.202859215    -1.917702743    -1.578615619
 H       -1.706654715    -0.964926111    -1.549872696
 H       -0.285553854    -0.353027363     2.450319517
 H       -1.734879105    -0.878223312     1.560832931
 H       -0.280196285    -1.908841431     1.579485291

