139   

Si        0.000000000     0.000000000     0.000000000
 C        1.869589422     0.000000000     0.000000000
 C       -0.636402894     1.733132176     0.000000000
 C        0.104214765     2.764611017    -0.587395514
 C       -0.377139179     4.073300324    -0.586972732
 C       -1.611650333     4.380638594    -0.008062486
 C       -2.354439222     3.345465770     0.574774493
 C       -1.874968694     2.037861770     0.578323312
 C       -2.154823844     5.734959711     0.015618748
 C       -1.543196486     6.812735436    -0.504305906
 C       -2.084546328     8.167721338    -0.481691888
 C       -3.318647967     8.476328393     0.096766549
 C       -3.798676100     9.786238849     0.096273632
 C       -3.048430392    10.815471661    -0.478048222
 C       -1.809844065    10.510338024    -1.059081058
 C       -1.337041384     9.201320143    -1.062444899
Si       -3.648284021    12.561326358    -0.499032403
 C       -2.177192533    13.614908061    -0.208615286
 C       -1.711003495    14.548853997    -1.046432828
 C       -0.528544960    15.371655554    -0.775707411
 C       -0.135872977    16.320254603    -1.732333479
 C        0.974230588    17.123103633    -1.525273244
 C        1.738141039    16.972240280    -0.355757498
 C        1.357271527    16.027130791     0.602506558
 C        0.226265483    15.243501438     0.392194642
 N        2.868625061    17.842144766    -0.221288523
 C        4.005547797    17.389961890    -1.053873973
 C        3.256320294    18.138880853     1.169051030
 C        4.680563333    16.093805875    -0.561085922
 C        5.406484503    15.349974266    -1.698351140
 N        4.682538694    14.175820329    -2.225576560
 C        3.478732437    14.442464324    -2.916893912
 C        3.480332616    15.435942534    -3.918114196
 C        2.319776149    15.725305769    -4.617163283
 C        1.141921681    14.996557198    -4.398122110
 C        1.154991416    13.985568654    -3.433095922
 C        2.303194362    13.702642307    -2.703607758
 C        4.649636829    13.058185031    -1.266181025
 C       -0.057569955    15.342588045    -5.163269724
 C       -1.233631687    14.714702983    -5.035153296
Si       -2.763861645    15.105011725    -5.964839667
 C       -4.018057250    15.557738328    -4.686531473
 C       -3.633297139    16.361559745    -3.604840085
 C       -4.556648697    16.718575425    -2.626662043
 C       -5.887837746    16.287723192    -2.708018952
 C       -6.269591733    15.490986728    -3.791036193
 C       -5.345786577    15.130595729    -4.772557543
 C       -6.817981151    16.688314253    -1.658049580
 C       -8.116218721    16.344628968    -1.614618077
 C       -9.045793110    16.745906541    -0.563823660
 C       -8.660577985    17.543188064     0.518493073
 C       -9.581315885    17.903422127     1.500657574
 C      -10.910994527    17.471171144     1.423710697
 C      -11.298516029    16.672878500     0.342037115
 C      -10.376266922    16.315786335    -0.639545290
Si      -12.107458644    17.964871187     2.740170221
 C      -11.457017643    17.382992866     4.392945528
 C      -12.266489775    19.826856454     2.732325111
 C      -13.785119764    17.199684945     2.434745432
 C       -2.538116179    16.540926218    -7.132698293
 C       -3.285888200    13.579782402    -6.904753941
 C       -4.411522620    12.872750500    -2.169456789
 C       -4.899958129    12.895782349     0.842043785
 C       -0.631083174    -0.856847744    -1.535975631
 C       -0.604646046    -0.901637261     1.522175234
 H        1.075346192     2.586603682    -1.057382695
 H        0.221314509     4.858285237    -1.046033588
 H       -3.318678401     3.562659771     1.030836768
 H       -2.498616598     1.273223587     1.049506631
 H       -3.130639544     5.827988875     0.501354495
 H       -0.567765511     6.718523798    -0.990668424
 H       -3.918750708     7.691906601     0.553973575
 H       -4.770985698     9.967335560     0.562255375
 H       -1.179520110    11.279412977    -1.518989487
 H       -0.374165286     8.980827035    -1.519607400
 H       -1.679524888    13.413218558     0.753968816
 H       -2.188955146    14.776193522    -2.010136465
 H       -0.704781610    16.427147532    -2.657992047
 H        1.265288545    17.868863713    -2.263412602
 H        1.935806274    15.899558659     1.512239894
 H       -0.060912483    14.515521157     1.151403755
 H        3.984883449    18.968111429     1.156511633
 H        3.699857323    17.294747562     1.716891212
 H        2.368200320    18.490180149     1.723392691
 H        5.662292907    12.892351722    -0.861443129
 H        4.361563608    12.133812508    -1.799455123
 H        3.958922081    13.211185428    -0.421186622
 H        4.394433010    15.979207451    -4.142097030
 H        2.332946351    16.518264346    -5.365123701
 H        0.248866261    13.409066375    -3.232600259
 H        2.263021885    12.923533082    -1.948058134
 H        0.098860949    16.174246984    -5.862317672
 H       -1.355949275    13.876234987    -4.328222109
 H       -2.609119263    16.734665100    -3.494113656
 H       -4.237608207    17.337121868    -1.788475952
 H       -7.297913048    15.145595210    -3.879024336
 H       -5.702559654    14.506371498    -5.595817198
 H       -6.379398705    17.311261633    -0.872330624
 H       -8.554778643    15.721507872    -2.399567228
 H       -7.632117984    17.890925544     0.601686054
 H       -9.221556741    18.530224988     2.321764684
 H      -12.322491427    16.306423689     0.229686585
 H      -10.698184849    15.694948933    -1.473640743
 H        3.624626198    17.252738713    -2.093429332
 H        4.743241285    18.220216249    -1.093841340
 H        5.390517592    16.325923412     0.251752279
 H        3.917345159    15.430433173    -0.106827463
 H        5.625454351    16.039184381    -2.544178014
 H        6.402011956    14.994757050    -1.345003869
 H        2.268013144    -1.027877571     0.069567279
 H        2.269943404     0.569800110     0.858047662
 H        2.279713943     0.450713604    -0.920593636
 H      -12.148078733    17.647196620     5.212682447
 H      -10.475995382    17.833663021     4.625364626
 H      -11.327386083    16.285482390     4.407123006
 H      -11.294791284    20.317863711     2.918218891
 H      -12.638512930    20.192010994     1.757702026
 H      -12.970441888    20.174124698     3.508952246
 H      -13.729308613    16.096729649     2.412728047
 H      -14.500267235    17.478054591     3.229568776
 H      -14.214570569    17.534215083     1.473612548
 H       -2.221803564    17.454771119    -6.597670959
 H       -1.775952126    16.320499007    -7.901329034
 H       -3.479370410    16.780426550    -7.659916440
 H       -3.492475792    12.733276678    -6.224582367
 H       -4.196884422    13.760991768    -7.501429379
 H       -2.494198427    13.252930121    -7.603895916
 H       -3.712798640    12.628972844    -2.989806848
 H       -5.320225506    12.263557229    -2.318696321
 H       -4.704723919    13.934994560    -2.287436713
 H       -4.495189931    12.679029601     1.846182582
 H       -5.212493575    13.957257729     0.832147616
 H       -5.811392730    12.286626858     0.707703314
 H       -0.285005144    -0.345832826    -2.452446942
 H       -0.283123841    -1.903522514    -1.585110704
 H       -1.735529871    -0.869634922    -1.564187352
 H       -0.310309327    -0.369138722     2.444754670
 H       -1.704056352    -1.001094177     1.530612905
 H       -0.180847276    -1.920144217     1.577592795

