139   

Si        0.000000000     0.000000000     0.000000000
 C        1.869045909     0.000000000     0.000000000
 C       -0.659503422     1.724026597     0.000000000
 C        0.173693477     2.828441113    -0.200322660
 C       -0.348856766     4.122062656    -0.195904766
 C       -1.713817479     4.340250606     0.007040681
 C       -2.548184951     3.231591584     0.205377569
 C       -2.029884568     1.939724079     0.200622269
 C       -2.306353902     5.673647044     0.020133179
 C       -1.623923302     6.817707229    -0.157215296
 C       -2.220977567     8.149261639    -0.143295802
 C       -1.392879852     9.262470081    -0.341844183
 C       -1.919102872    10.551298042    -0.336554390
 C       -3.287710760    10.759541651    -0.119663782
 C       -4.114837075     9.650379175     0.080557806
 C       -3.586640354     8.359677176     0.064612244
Si       -3.969337226    12.474715354    -0.115766700
 C       -3.984119294    13.108933456    -1.838558370
 C       -3.556382066    12.395706646    -2.888792834
 C       -3.551090318    12.863323229    -4.276689097
 C       -3.069400524    11.993754596    -5.267839094
 C       -3.038524307    12.377137928    -6.598583933
 C       -3.536536168    13.637269923    -6.981210660
 C       -4.020328449    14.509211449    -5.997062521
 C       -4.005826497    14.127661613    -4.658384600
 N       -3.471062568    13.961124780    -8.367591641
 C       -4.333928683    13.112951258    -9.218071759
 C       -3.587999495    15.393562979    -8.689890401
 C       -5.838458116    13.428698289    -9.111929037
 C       -6.724264189    12.169757545    -9.156863436
 N       -6.886522947    11.461058954    -7.869382742
 C       -7.189813824    12.281368152    -6.759898771
 C       -8.172836470    13.283086477    -6.905261901
 C       -8.495973596    14.105932734    -5.838646667
 C       -7.868817536    13.957145196    -4.593835742
 C       -6.919352080    12.942744080    -4.444937069
 C       -6.598406987    12.097641071    -5.499158310
 C       -5.884142105    10.406210352    -7.647315724
 C       -8.244596217    14.851127880    -3.497463410
 C       -7.705882269    14.791132577    -2.272981621
Si       -8.126780307    15.873504802    -0.859448085
 C       -8.751960596    14.778354272     0.488879798
 C       -9.302777546    13.528560065     0.178879618
 C       -9.776518274    12.696658387     1.189907533
 C       -9.710894890    13.091614262     2.532642439
 C       -9.161242842    14.340034284     2.838190778
 C       -8.687482171    15.176300612     1.827825913
 C      -10.220615526    12.184253198     3.555372803
 C      -10.219655699    12.439251212     4.874793946
 C      -10.730098977    11.529992189     5.895783820
 C      -11.279197077    10.282232711     5.587425717
 C      -11.755493716     9.444330160     6.595051071
 C      -11.684927329     9.832916821     7.937324979
 C      -11.134209986    11.082300646     8.248925129
 C      -10.666245793    11.920433815     7.239760041
Si      -12.315877854     8.722763786     9.271095571
 C      -12.111312743     6.934932691     8.764154905
 C      -11.364211330     9.015624646    10.853372720
 C      -14.125765633     9.100133701     9.541823968
 C       -6.566265065    16.747990084    -0.317922699
 C       -9.445938144    17.118762581    -1.293983837
 C       -5.706139046    12.483000920     0.565665126
 C       -2.891366835    13.583888699     0.931843949
 C       -0.623628724    -0.871070379    -1.531231769
 C       -0.607300713    -0.884357373     1.531023559
 H        1.249591116     2.721116766    -0.363038624
 H        0.321768854     4.965106892    -0.352776986
 H       -3.614735690     3.379661438     0.365261993
 H       -2.729789876     1.114563400     0.359823637
 H       -3.387138504     5.691227668     0.190582861
 H       -0.543349222     6.801723586    -0.326386961
 H       -0.326168392     9.120289452    -0.504382528
 H       -1.225347417    11.380877357    -0.503437731
 H       -5.190890539     9.751719304     0.252303691
 H       -4.252271659     7.512625628     0.220294567
 H       -4.369987708    14.132705021    -1.954132425
 H       -3.167171244    11.370679608    -2.785912335
 H       -2.696680048    11.008071458    -4.986448608
 H       -2.616926679    11.715827444    -7.352453697
 H       -4.419696412    15.482662888    -6.266319796
 H       -4.379298120    14.824338472    -3.906095523
 H       -3.341741295    15.536223243    -9.756297271
 H       -2.840773941    15.957914377    -8.103792504
 H       -4.583112190    15.825820952    -8.502966876
 H       -5.771133357     9.802491635    -8.562466235
 H       -6.251870048     9.724717981    -6.857533851
 H       -4.892359135    10.786286903    -7.348608536
 H       -8.683851746    13.406932633    -7.855663841
 H       -9.254079306    14.877484422    -5.972965635
 H       -6.414279218    12.798068297    -3.485359464
 H       -5.850042265    11.325382630    -5.338680253
 H       -9.014934836    15.581382613    -3.775069140
 H       -6.932090131    14.041887983    -2.030683220
 H       -9.377536951    13.167324450    -0.853031365
 H      -10.202276735    11.728916194     0.930897227
 H       -9.099058274    14.670406753     3.873349754
 H       -8.268602420    16.140672764     2.127320620
 H      -10.622661499    11.242075337     3.170958851
 H       -9.818657089    13.381315874     5.260311143
 H      -11.340847271     9.953716797     4.551392519
 H      -12.175922622     8.481728153     6.290882236
 H      -11.052186501    11.439043297     9.279346817
 H      -10.243611543    12.888655566     7.502202311
 H       -3.987182436    13.240055698   -10.268184569
 H       -4.138509362    12.049068187    -8.959737219
 H       -6.038880882    13.989176502    -8.174171193
 H       -6.136132188    14.115637998    -9.924431946
 H       -7.749479112    12.452357422    -9.498074856
 H       -6.343408969    11.454589685    -9.917439546
 H        2.266571478    -1.029612661     0.049369526
 H        2.272407025     0.551754777     0.868102122
 H        2.276607194     0.466751830    -0.914165226
 H      -12.421527576     6.251974534     9.574933234
 H      -11.057421566     6.706105468     8.522606217
 H      -12.718182830     6.688632482     7.875470593
 H      -10.278362877     8.881494594    10.697490446
 H      -11.522002780    10.036000664    11.244145757
 H      -11.675458698     8.308408673    11.642745283
 H      -14.712335072     8.939856183     8.619310956
 H      -14.557936816     8.457363028    10.328672950
 H      -14.276250649    10.151014579     9.848062334
 H       -5.796547342    16.030468297     0.019467766
 H       -6.131567609    17.334359742    -1.147780756
 H       -6.760123317    17.445229014     0.515162644
 H      -10.378960561    16.621090997    -1.616206027
 H       -9.698361457    17.756452431    -0.427939597
 H       -9.120305159    17.783678627    -2.113489739
 H       -6.435263493    12.046562590    -0.140949147
 H       -5.770754346    11.908426179     1.508030687
 H       -6.048936565    13.507878375     0.797543412
 H       -1.861602676    13.643162277     0.537688371
 H       -3.290129955    14.612697668     0.974133789
 H       -2.827463406    13.208668587     1.969434909
 H       -0.277530218    -0.363498781    -2.449860507
 H       -0.268519654    -1.915683407    -1.573355758
 H       -1.727527335    -0.891424156    -1.563031366
 H       -0.275721222    -0.365549575     2.449013899
 H       -1.709681564    -0.937258789     1.561683115
 H       -0.223079711    -1.918639852     1.576103881

