139   

Si        0.000000000     0.000000000     0.000000000
 C        1.869403988     0.000000000     0.000000000
 C       -0.644420921     1.730182841     0.000000000
 C        0.123353981     2.782939401    -0.508580016
 C       -0.369899558     4.087435531    -0.505342683
 C       -1.642489213     4.368854164    -0.000975922
 C       -2.412366126     3.312252190     0.503325663
 C       -1.921818506     2.008998131     0.502874404
 C       -2.199891188     5.717346760     0.022891080
 C       -1.567509779     6.814563504    -0.426692736
 C       -2.124726090     8.163151100    -0.402921200
 C       -3.397847291     8.443407996     0.101861971
 C       -3.891732953     9.747383138     0.105456103
 C       -3.116807887    10.801062614    -0.389919644
 C       -1.840784170    10.524454866    -0.896211867
 C       -1.353757567     9.219724195    -0.905006634
Si       -3.762084817    12.529704652    -0.389167091
 C       -2.335421999    13.678935839    -0.402679184
 C       -2.082744680    14.587915445    -1.353595553
 C       -0.933893118    15.494933425    -1.339701551
 C       -0.775040026    16.405787976    -2.393872837
 C        0.294166847    17.285651717    -2.428977706
 C        1.227213637    17.320476692    -1.369124396
 C        1.067311528    16.406548866    -0.308921776
 C        0.016367009    15.498859980    -0.314879192
 N        2.307964286    18.213736259    -1.410404904
 C        2.141543378    19.465675940    -2.168068949
 C        3.113688873    18.352685638    -0.188488426
 C        0.986708644    20.365580386    -1.695915609
 C        1.354652713    21.287739617    -0.520753137
 N        2.103647934    22.503812098    -0.886547158
 C        1.542238269    23.337124894    -1.868479539
 C        0.139490041    23.487930647    -1.934888929
 C       -0.432826201    24.304871785    -2.895653504
 C        0.358501398    25.035779640    -3.793940059
 C        1.747179919    24.908588442    -3.706331408
 C        2.338241388    24.082832478    -2.758326516
 C        3.563191690    22.329522740    -0.908669732
 C       -0.298629995    25.884158092    -4.789812036
 C        0.355060091    26.624187876    -5.694929278
Si       -0.428287441    27.697469694    -6.956229774
 C        0.145993527    29.428556780    -6.677524781
 C        0.518753944    29.848423193    -5.394512660
 C        0.952911136    31.153929616    -5.178803559
 C        1.017201710    32.072131828    -6.235252591
 C        0.639924068    31.650364276    -7.513441540
 C        0.208259904    30.342868212    -7.733850348
 C        1.478744308    33.428880135    -5.959232618
 C        1.590026769    34.400942238    -6.880401679
 C        2.051441063    35.757784300    -6.605179640
 C        2.429148768    36.181687301    -5.328067801
 C        2.864267559    37.488604384    -5.110493433
 C        2.940362539    38.399697307    -6.169299297
 C        2.563601550    37.976985137    -7.450327368
 C        2.121862682    36.673558444    -7.663320596
Si        3.515938227    40.131061378    -5.885625738
 C        4.684056848    40.189754659    -4.427091151
 C        4.409165594    40.762638439    -7.401733188
 C        2.020404792    41.196976741    -5.541065059
 C        0.110580999    27.094821353    -8.640869464
 C       -2.291059313    27.664977699    -6.834826720
 C       -4.847969065    12.754886331    -1.891292891
 C       -4.748437033    12.851914375     1.164936778
 C       -0.629832905    -0.859812750    -1.534785074
 C       -0.603207707    -0.899340017     1.524152834
 H        1.125324573     2.625887321    -0.917303442
 H        0.249635463     4.889529099    -0.902837312
 H       -3.406517930     3.509213541     0.900449069
 H       -2.568069856     1.226547607     0.910165370
 H       -3.206327221     5.788359045     0.445862218
 H       -0.561209777     6.742961208    -0.850118494
 H       -4.017156113     7.640453112     0.497151071
 H       -4.894794139     9.904858450     0.510925933
 H       -1.192205510    11.311420718    -1.296012519
 H       -0.360792538     9.022477383    -1.305136925
 H       -1.670568777    13.566262189     0.468666316
 H       -2.728491301    14.723129105    -2.231510826
 H       -1.498172234    16.416445333    -3.210489086
 H        0.404564513    17.950947001    -3.280630255
 H        1.765666944    16.389866584     0.521117549
 H       -0.071878493    14.788663094     0.509401047
 H        3.910946345    19.098968415    -0.338977364
 H        3.616442247    17.389555148     0.022475822
 H        2.523219376    18.642921680     0.696278046
 H        3.877948369    21.661066149    -0.090407280
 H        4.043516711    23.308843683    -0.720566379
 H        3.948678108    21.926540147    -1.859665096
 H       -0.500538434    22.961708826    -1.232111268
 H       -1.519280414    24.390177348    -2.942020449
 H        2.387681678    25.467390564    -4.391240433
 H        3.420629209    24.015587668    -2.727758598
 H       -1.394459593    25.858423054    -4.723989267
 H        1.456317019    26.629481071    -5.736956745
 H        0.487991657    29.173963741    -4.532064527
 H        1.243561797    31.461917313    -4.175953918
 H        0.680936872    32.343667672    -8.351456720
 H       -0.071116434    30.070444321    -8.755150594
 H        1.740624035    33.619196492    -4.914141014
 H        1.328026469    34.210622751    -7.925394551
 H        2.384658207    35.490763208    -4.488014304
 H        3.143863507    37.761378545    -4.089044702
 H        2.602665769    38.643998782    -8.315958006
 H        1.831344286    36.364628177    -8.665792993
 H        3.104184107    20.022203993    -2.147561279
 H        1.989240916    19.191185814    -3.240097470
 H        0.627270193    20.975102677    -2.550528948
 H        0.118037284    19.738573718    -1.407307248
 H        0.422494562    21.617374091    -0.000447261
 H        1.933975813    20.727844653     0.245372466
 H        2.267660281    -1.028525633     0.061366278
 H        2.269963872     0.562747000     0.862592499
 H        2.279277050     0.457548473    -0.917429520
 H        5.086625383    41.207655707    -4.278932200
 H        5.543611859    39.511306461    -4.575733774
 H        4.183193523    39.893768244    -3.488791962
 H        5.246296220    40.096434204    -7.678723338
 H        3.736608063    40.833135553    -8.274293691
 H        4.829887241    41.768896361    -7.227082608
 H        1.470498365    40.842397519    -4.650688425
 H        2.307453649    42.247708355    -5.360410989
 H        1.313367229    41.184291568    -6.389947958
 H        1.202441353    27.198399933    -8.775342814
 H       -0.140292258    26.027421108    -8.779570305
 H       -0.381157891    27.659176436    -9.452121160
 H       -2.636286999    28.015215104    -5.844911252
 H       -2.753490931    28.321413304    -7.593819861
 H       -2.687703420    26.645876663    -6.989187987
 H       -4.284789025    12.576035738    -2.825452002
 H       -5.697438197    12.048523171    -1.880920297
 H       -5.264402728    13.776649582    -1.938857277
 H       -4.154052548    12.635149834     2.070890586
 H       -5.065938529    13.908935610     1.221964511
 H       -5.658692782    12.228952765     1.206041293
 H       -0.284408219    -0.349314040    -2.451890875
 H       -0.280305636    -1.906029622    -1.582684517
 H       -1.734204215    -0.874169302    -1.563354253
 H       -0.306769698    -0.366122574     2.445721003
 H       -1.702818428    -0.996233562     1.534789376
 H       -0.181164209    -1.918488753     1.580008740

