139   

Si        0.000000000     0.000000000     0.000000000
 C        1.869463572     0.000000000     0.000000000
 C       -0.635844184     1.733481562     0.000000000
 C        0.087556515     2.759289318     0.618026837
 C       -0.394329653     4.067896017     0.616966402
 C       -1.612818824     4.379778495     0.007447074
 C       -2.338519654     3.350443544    -0.606177610
 C       -1.857920776     2.043334747    -0.609989053
 C       -2.157354440     5.733434145    -0.019077620
 C       -1.563749038     6.808571486     0.526316227
 C       -2.111433315     8.161033846     0.497811693
 C       -1.388016018     9.195361779     1.106605364
 C       -1.871660942    10.501510684     1.104076353
 C       -3.097554736    10.800999850     0.498094700
 C       -3.822784904     9.770742729    -0.109831376
 C       -3.331734224     8.465905482    -0.111867088
Si       -3.752068270    12.525894424     0.486168415
 C       -5.571450274    12.428189078     0.286013430
 C       -6.273395294    12.962293661    -0.721154047
 C       -7.729613765    12.863320783    -0.847576779
 C       -8.353679673    13.466056230    -1.950992090
 C       -9.727134774    13.400947003    -2.116155300
 C      -10.518903206    12.692911381    -1.189104080
 C       -9.900297478    12.092238056    -0.083082989
 C       -8.524067673    12.198447874     0.089259277
 N      -11.918212171    12.666967389    -1.418957276
 C      -12.331404693    12.006903145    -2.674030211
 C      -12.755654134    12.314854399    -0.262516585
 C      -12.539150178    10.483269518    -2.613043887
 C      -11.259358607     9.668588001    -2.347800917
 N      -10.358103618     9.508656500    -3.499309957
 C      -10.897501984     9.028173693    -4.697583643
 C      -11.940003284     8.074594448    -4.662297410
 C      -12.485097422     7.588672812    -5.838804034
 C      -11.991824906     7.989269387    -7.089082521
 C      -10.940772831     8.910473242    -7.121313771
 C      -10.392330831     9.421611907    -5.952976687
 C       -9.285350094    10.507371574    -3.583341514
 C      -12.604900357     7.444624456    -8.301191543
 C      -12.216967517     7.755264617    -9.545250839
Si      -12.955714508     7.097618153   -11.086122100
 C      -13.612037283     8.515535587   -12.068446608
 C      -13.916031371     9.731185490   -11.443719397
 C      -14.411275390    10.800812244   -12.185528982
 C      -14.621334211    10.680292755   -13.565370321
 C      -14.321031758     9.463559500   -14.184803640
 C      -13.822710626     8.391391024   -13.445723435
 C      -15.141883371    11.828970095   -14.299825685
 C      -15.384887865    11.845391330   -15.621325914
 C      -15.905371938    12.993605543   -16.356290965
 C      -16.206310129    14.210995955   -15.739158559
 C      -16.702160950    15.282913398   -16.480673218
 C      -16.899200594    15.163937798   -17.860569362
 C      -16.597183068    13.945426183   -18.481549879
 C      -16.110027651    12.873923532   -17.737195953
Si      -17.555460668    16.580604904   -18.845986933
 C      -17.073241294    18.199426276   -18.044274861
 C      -16.854895549    16.532224436   -20.578769707
 C      -19.417470365    16.437541540   -18.911425651
 C      -11.613221274     6.219573696   -12.044602577
 C      -14.360711452     5.919297792   -10.732877602
 C       -3.391664324    13.372568112     2.111335399
 C       -2.948953518    13.461302696    -0.915210005
 C       -0.603760138    -0.903824740    -1.521047716
 C       -0.632345593    -0.854968186     1.536573148
 H        1.045881012     2.577153043     1.112304872
 H        0.190186603     4.848847081     1.100217604
 H       -3.289830358     3.571265410    -1.087362801
 H       -2.467353660     1.283103173    -1.106389511
 H       -3.119653273     5.828145086    -0.531550784
 H       -0.601717047     6.714706783     1.038371484
 H       -0.435739612     8.978745061     1.587172513
 H       -1.263317286    11.267647868     1.592184689
 H       -4.786996387     9.948047844    -0.598512188
 H       -3.912920153     7.681439488    -0.593868914
 H       -6.071557373    11.872987545     1.096882967
 H       -5.804475091    13.522160734    -1.540986539
 H       -7.752060295    14.006944049    -2.682296643
 H      -10.205143888    13.907652138    -2.952561404
 H      -10.486809804    11.548452980     0.651638456
 H       -8.064273237    11.736938768     0.964785610
 H      -13.814215620    12.491153434    -0.522533472
 H      -12.510883137    12.989660079     0.577725820
 H      -12.649345047    11.273903917     0.080076811
 H       -8.912876210    10.752266151    -2.570967192
 H       -9.594830590    11.448289763    -4.066775057
 H       -8.431509350    10.078992743    -4.140161917
 H      -12.317688105     7.715390357    -3.709899654
 H      -13.302526044     6.868640588    -5.788225744
 H      -10.537461814     9.239028945    -8.080925269
 H       -9.580558724    10.138180089    -6.024107559
 H      -13.426989124     6.746681573    -8.093765285
 H      -11.385214556     8.456375314    -9.722418612
 H      -13.773233145     9.881463311   -10.368249466
 H      -14.638472379    11.739528731   -11.683581978
 H      -14.474870804     9.343411406   -15.255564195
 H      -13.605033956     7.465746443   -13.985392004
 H      -15.331738727    12.715228356   -13.687065959
 H      -15.195080970    10.958754213   -16.233533924
 H      -16.056595232    14.331798017   -14.667648067
 H      -16.921550586    16.208355443   -15.940995188
 H      -16.730272631    13.793751739   -19.556284706
 H      -15.883863786    11.934230472   -18.237835567
 H      -13.289909417    12.491372201    -2.981246240
 H      -11.595715669    12.249156253    -3.473329108
 H      -13.289379970    10.235469175    -1.838754462
 H      -12.995056229    10.156007472    -3.571732051
 H      -10.686701741    10.118800879    -1.504787484
 H      -11.539989406     8.643547167    -2.003132627
 H        2.267842652    -1.028506941    -0.060115850
 H        2.280140253     0.459748658     0.915820660
 H        2.269214506     0.561759399    -0.863720052
 H      -17.397290760    19.059767072   -18.656495900
 H      -15.977566436    18.273811591   -17.921057872
 H      -17.530242636    18.314718909   -17.045966945
 H      -15.749886752    16.536745751   -20.562400757
 H      -17.176561373    15.629275725   -21.126342489
 H      -17.182195293    17.408353637   -21.166309303
 H      -19.858506758    16.469673466   -17.898884532
 H      -19.864694548    17.259552644   -19.497274628
 H      -19.731246125    15.485836188   -19.376697932
 H      -10.805050681     6.915783590   -12.333562680
 H      -11.155971295     5.413631284   -11.442195925
 H      -12.005615963     5.762111177   -12.969156468
 H      -15.167020582     6.415301170   -10.162398983
 H      -14.808488043     5.536536618   -11.667327510
 H      -14.018128058     5.048666862   -10.145954348
 H       -3.787167069    12.791912008     2.964422486
 H       -2.306878334    13.502151679     2.270831392
 H       -3.855133326    14.375337847     2.149497497
 H       -3.151663391    12.979002165    -1.888847769
 H       -3.316953549    14.501215097    -0.970604947
 H       -1.851492970    13.502454991    -0.792221416
 H       -0.313789139    -0.369897631    -2.444260756
 H       -0.175928348    -1.920594106    -1.577750845
 H       -1.702813070    -1.008123243    -1.526904728
 H       -0.286294825    -0.342764926     2.452419132
 H       -1.736783814    -0.867338646     1.564448772
 H       -0.284841605    -1.901729142     1.587177768

