139   

Si        0.000000000     0.000000000     0.000000000
 C        1.867786170     0.000000000     0.000000000
 C       -0.564549371     1.758010763     0.000000000
 C       -0.806497036     2.444445735    -1.194133384
 C       -1.232956865     3.773372188    -1.177600481
 C       -1.411350031     4.447647215     0.031964088
 C       -1.159474270     3.760645603     1.228004438
 C       -0.740198174     2.434100834     1.214310280
 C       -1.853855047     5.833649066     0.121008813
 C       -2.146238608     6.641980701    -0.912003054
 C       -2.585617349     8.025622069    -0.748081949
 C       -2.732741850     8.607887799     0.515435390
 C       -3.153013629     9.929280760     0.651105791
 C       -3.426302446    10.707051254    -0.478642281
 C       -3.280897239    10.129860967    -1.746334253
 C       -2.871033528     8.803786325    -1.877824766
Si       -3.981999095    12.455858371    -0.275048112
 C       -3.140907375    13.477844525    -1.541367018
 C       -3.755160209    14.197536361    -2.489572384
 C       -3.052472558    15.005598482    -3.489061285
 C       -3.803028748    15.718637498    -4.435144463
 C       -3.183142283    16.496487955    -5.399909557
 C       -1.776493696    16.527303333    -5.491034654
 C       -1.022171567    15.807994187    -4.549883633
 C       -1.658225609    15.081790717    -3.550366286
 N       -1.185040953    17.336220815    -6.492295946
 C       -1.689968138    17.110957247    -7.863381599
 C        0.283775784    17.448323902    -6.451418610
 C       -1.470268613    15.682702085    -8.398866679
 C       -2.787260234    14.881290000    -8.423798563
 N       -2.602444380    13.423214716    -8.565294844
 C       -2.000803440    12.803276611    -7.435526440
 C       -2.664034433    12.920169245    -6.199019411
 C       -2.127598019    12.338057420    -5.063058291
 C       -0.956508635    11.569224127    -5.127073378
 C       -0.319951570    11.431183153    -6.361963128
 C       -0.828398014    12.038363632    -7.506450349
 C       -2.048605853    13.047848578    -9.877326339
 C       -0.434740210    10.977387754    -3.892225486
 C        0.673134547    10.228243876    -3.842246057
Si        1.403287885     9.447291795    -2.353695039
 C        1.393956086     7.640304898    -2.736776634
 C        0.344448981     7.128121805    -3.512953322
 C        0.294758323     5.774031131    -3.827249577
 C        1.288350650     4.897825546    -3.370007757
 C        2.329528570     5.409464767    -2.591680026
 C        2.381336925     6.767541328    -2.274100626
 C        1.187416141     3.487823336    -3.728963007
 C        2.061682306     2.535266032    -3.363448873
 C        1.944727538     1.128444465    -3.732076581
 C        0.893175992     0.640619302    -4.512133992
 C        0.818429549    -0.712839360    -4.842410869
 C        1.798121601    -1.607176788    -4.402338495
 C        2.858988907    -1.119413009    -3.626800575
 C        2.932895058     0.232149204    -3.302233360
Si        1.730048691    -3.403008848    -4.820667680
 C        0.198250729    -3.793885715    -5.817108963
 C        3.249013995    -3.849707300    -5.812305870
 C        1.690995579    -4.376497598    -3.224892307
 C        3.161432026    10.061927809    -2.181072139
 C        0.473231449     9.817074785    -0.787673589
 C       -5.838137529    12.506550366    -0.468606850
 C       -3.496267309    13.118561774     1.402820226
 C       -0.643394713    -0.888496664    -1.510113586
 C       -0.634174219    -0.877144807     1.526319974
 H       -0.669560159     1.970638528    -2.171146203
 H       -1.409895952     4.288925631    -2.120313365
 H       -1.291362037     4.268780738     2.181233028
 H       -0.561052322     1.951805151     2.178749492
 H       -1.942565611     6.204998410     1.148731767
 H       -2.052337936     6.297459186    -1.944522892
 H       -2.521073781     8.028413012     1.412643110
 H       -3.251265026    10.320921361     1.667172767
 H       -3.483576155    10.691025023    -2.664537652
 H       -2.765096654     8.372481729    -2.872357124
 H       -2.041422848    13.463529815    -1.459205843
 H       -4.847466890    14.235350742    -2.593153865
 H       -4.892004925    15.679923764    -4.401222174
 H       -3.783005625    17.087271433    -6.087263906
 H        0.062829094    15.798278582    -4.594011032
 H       -1.048697185    14.543454787    -2.821976250
 H        0.607884577    18.209358680    -7.181892898
 H        0.813576867    16.507713222    -6.671290638
 H        0.594033504    17.809975402    -5.454611832
 H       -2.691117137    13.469923581   -10.669122661
 H       -2.084592613    11.948799911    -9.983592186
 H       -1.015855967    13.387413001   -10.049219995
 H       -3.593784476    13.482875964    -6.133233348
 H       -2.642783231    12.462684201    -4.107264997
 H        0.594333467    10.841972223    -6.442008559
 H       -0.297688448    11.921022826    -8.445756732
 H       -1.039894309    11.207126981    -3.004366018
 H        1.254283865    10.017589327    -4.755992280
 H       -0.457830706     7.767277569    -3.898501819
 H       -0.522619090     5.395407234    -4.437625346
 H        3.107876730     4.746947965    -2.218336334
 H        3.215566326     7.111614475    -1.657720060
 H        0.319748056     3.237377708    -4.347512318
 H        2.928844926     2.780089681    -2.744080884
 H        0.117900621     1.315834316    -4.870279614
 H       -0.028314108    -1.035506971    -5.454205827
 H        3.654676679    -1.772164433    -3.257098999
 H        3.770826645     0.594881131    -2.708910716
 H       -2.769972139    17.379736119    -7.880875138
 H       -1.193559118    17.850079462    -8.531990401
 H       -1.028796803    15.716814455    -9.409504860
 H       -0.728187949    15.149469380    -7.771098508
 H       -3.362760380    15.065545316    -7.486194306
 H       -3.435156629    15.226033600    -9.259281355
 H        2.270082729    -1.024730346    -0.076121040
 H        2.273043298     0.457460689     0.918991090
 H        2.256659992     0.578167648    -0.859258164
 H        0.144889587    -4.870693492    -6.058608875
 H        0.184307795    -3.241522801    -6.773541498
 H       -0.722410565    -3.534244865    -5.264591976
 H        3.294435408    -3.274926752    -6.755266079
 H        4.176869013    -3.636824306    -5.252400775
 H        3.256835522    -4.922008293    -6.075704330
 H        0.809588721    -4.107093816    -2.614658986
 H        1.644175046    -5.462685936    -3.417173448
 H        2.588324238    -4.184446287    -2.610502733
 H        3.772393473     9.792999722    -3.060690080
 H        3.189412356    11.161708774    -2.081389167
 H        3.651938276     9.634988278    -1.289137719
 H       -0.606145900     9.586612337    -0.886359898
 H        0.853775989     9.217726675     0.058952699
 H        0.555938706    10.882829556    -0.509679034
 H       -6.152139580    12.137995154    -1.462052642
 H       -6.335707797    11.872111347     0.287070311
 H       -6.229735653    13.532153137    -0.349755744
 H       -2.413051186    13.005521454     1.587580717
 H       -3.734210815    14.194816316     1.487329599
 H       -4.031913086    12.599346363     2.216529941
 H       -0.197924848    -0.479561727    -2.437702249
 H       -0.393815170    -1.963611687    -1.479545058
 H       -1.740097629    -0.800051683    -1.596883647
 H       -0.216207202    -0.445076710     2.451628760
 H       -1.734880725    -0.812671653     1.594688045
 H       -0.364235805    -1.947687592     1.510171449

