139   

Si        0.000000000     0.000000000     0.000000000
 C        1.869458614     0.000000000     0.000000000
 C       -0.640293595     1.731929088     0.000000000
 C        0.140567687     2.788789709    -0.478869390
 C       -0.351490153     4.093777357    -0.474943734
 C       -1.635699941     4.371823743     0.000869100
 C       -2.418725563     3.311141154     0.475448444
 C       -1.929641536     2.007388206     0.473846645
 C       -2.192111524     5.720729709     0.024175278
 C       -1.547068579     6.820911369    -0.399367260
 C       -2.101918261     8.170496651    -0.376791233
 C       -3.386512135     8.449530711     0.099029274
 C       -3.877423247     9.754749780     0.102458654
 C       -3.088422966    10.810188197    -0.365506435
 C       -1.801082551    10.534804121    -0.843291165
 C       -1.316570362     9.229355529    -0.851185469
Si       -3.725005639    12.542438565    -0.366885450
 C       -2.270768584    13.656955572    -0.382507204
 C       -1.991378262    14.559465525    -1.331395965
 C       -0.815843035    15.432881351    -1.306228764
 C       -0.625874074    16.342728966    -2.358406512
 C        0.468961091    17.189263944    -2.380419428
 C        1.434274941    17.128088938    -1.352734013
 C        1.244311729    16.224228205    -0.295941788
 C        0.119873233    15.405989635    -0.270296335
 N        2.532684488    18.015547889    -1.424297725
 C        3.303454057    17.966434874    -2.689563464
 C        3.384837660    18.101218200    -0.226896364
 C        3.411443201    16.586961692    -3.359816862
 C        4.114584603    15.539842509    -2.477130938
 N        3.834266672    14.151951837    -2.889294394
 C        4.227338476    13.779457667    -4.187371165
 C        5.389542627    14.340508765    -4.759871626
 C        5.786141663    13.981025160    -6.037473485
 C        5.078375190    13.020530844    -6.774380160
 C        3.946716836    12.442217093    -6.193337241
 C        3.525778578    12.802491265    -4.919930854
 C        2.518960683    13.672654787    -2.430570640
 C        5.542589667    12.679530313    -8.119575283
 C        4.951947373    11.780475811    -8.918158462
Si        5.521826997    11.344118434   -10.602952303
 C        7.024781744    12.323712905   -11.034349650
 C        7.038160268    13.220137763   -12.108048524
 C        8.189400656    13.945685255   -12.408595101
 C        9.351653726    13.796826915   -11.641654500
 C        9.335037388    12.901477340   -10.567552451
 C        8.186370393    12.172495240   -10.266306854
 C       10.532007139    14.578503207   -11.995684868
 C       11.706738866    14.526884006   -11.345127983
 C       12.887352995    15.308305108   -11.698719310
 C       12.905630940    16.203507476   -12.771811478
 C       14.056674415    16.930383883   -13.074266827
 C       15.214665340    16.784122752   -12.303141778
 C       15.198653652    15.887995101   -11.226817102
 C       14.050278054    15.157489830   -10.931901396
Si       16.740864550    17.744616978   -12.700142795
 C       16.287870810    19.354966971   -13.534992140
 C       17.683458322    18.121381743   -11.130108208
 C       17.800697796    16.715899659   -13.844603432
 C        5.949508365     9.525516374   -10.650049993
 C        4.131502520    11.691457900   -11.802649107
 C       -4.804362880    12.785785953    -1.869717101
 C       -4.704716228    12.878943458     1.186769424
 C       -0.631706933    -0.859731526    -1.533823373
 C       -0.604082819    -0.895708821     1.525814301
 H        1.152597108     2.635068941    -0.863717306
 H        0.278189425     4.898814929    -0.850050919
 H       -3.422154276     3.505120617     0.850228715
 H       -2.586780851     1.221654208     0.856664586
 H       -3.208573403     5.789513015     0.422911536
 H       -0.530623188     6.751570034    -0.798405405
 H       -4.017065300     7.644549678     0.472024812
 H       -4.889530100     9.911457321     0.485358725
 H       -1.141738621    11.323100347    -1.222536477
 H       -0.314561079     9.032830571    -1.228745433
 H       -1.611796244    13.527056528     0.491820651
 H       -2.628834955    14.714920107    -2.211434298
 H       -1.355729836    16.391547977    -3.167330598
 H        0.587069768    17.911553599    -3.185314316
 H        1.964550789    16.155060450     0.513401297
 H       -0.016170389    14.723170316     0.570173648
 H        4.061525737    18.967849479    -0.333125404
 H        3.993645426    17.204736591    -0.032896209
 H        2.753372312    18.301211857     0.657753624
 H        2.301206032    14.063033306    -1.420380889
 H        2.542512217    12.570793258    -2.352259903
 H        1.685290250    13.971539895    -3.087679141
 H        5.979762180    15.062560839    -4.203677077
 H        6.673769326    14.445147120    -6.470032105
 H        3.378507967    11.691290650    -6.743989984
 H        2.641248684    12.327246461    -4.507601307
 H        6.437276811    13.243668461    -8.422586245
 H        4.054837503    11.231541999    -8.593374824
 H        6.160428842    13.381453198   -12.739695992
 H        8.180929317    14.636418487   -13.249592202
 H       10.225358890    12.766599703    -9.955919813
 H        8.234245553    11.485781996    -9.414898151
 H       10.401781954    15.237962716   -12.858812470
 H       11.837075986    13.866372627   -10.482703524
 H       12.016095899    16.339911305   -13.384313705
 H       14.009733424    17.613044682   -13.927278721
 H       16.073172527    15.731955356   -10.589083144
 H       14.058640588    14.463626332   -10.093233886
 H        2.796884360    18.672703580    -3.391803992
 H        4.319720664    18.382002899    -2.515783112
 H        2.402192199    16.219676753    -3.636813028
 H        3.948757008    16.687174985    -4.323664402
 H        5.216051245    15.696809873    -2.481830916
 H        3.799137541    15.647992632    -1.414592834
 H        2.267989709    -1.027552262     0.074709478
 H        2.270171339     0.573825598     0.855179149
 H        2.279049196     0.445439905    -0.923562813
 H       17.182196674    19.979364624   -13.709482308
 H       15.587938709    19.943915029   -12.914995608
 H       15.806881244    19.187619963   -14.514522937
 H       17.049569878    18.661748317   -10.403827365
 H       18.044677760    17.201544703   -10.637958843
 H       18.565402064    18.753750973   -11.335859267
 H       17.266952510    16.480287879   -14.782939545
 H       18.732702178    17.243286688   -14.113545705
 H       18.082539062    15.755256662   -13.377174408
 H        6.740632305     9.277863391    -9.919541467
 H        5.072152359     8.897894880   -10.414788603
 H        6.315881006     9.228207616   -11.649090027
 H        3.827852125    12.753553907   -11.769356339
 H        4.424206125    11.455095145   -12.840690682
 H        3.237623559    11.087538796   -11.564751380
 H       -4.243260239    12.598040027    -2.803394761
 H       -5.665652345    12.093563571    -1.861171905
 H       -5.204188501    13.814348556    -1.917785259
 H       -4.109251372    12.665654522     2.093077846
 H       -5.018694777    13.937517216     1.238611187
 H       -5.617236794    12.259319100     1.234322492
 H       -0.286560128    -0.349648606    -2.451299516
 H       -0.282623288    -1.906146012    -1.581970255
 H       -1.736065414    -0.873759686    -1.561565769
 H       -0.301738806    -0.363945809     2.446326608
 H       -1.704288023    -0.985411186     1.539849060
 H       -0.188366225    -1.917490938     1.580604415

