139   

Si        0.000000000     0.000000000     0.000000000
 C        1.869565028     0.000000000     0.000000000
 C       -0.606785480     1.743871456     0.000000000
 C       -0.001336128     2.695480618    -0.829207660
 C       -0.449259019     4.015311930    -0.839226971
 C       -1.519321597     4.412730938    -0.031874586
 C       -2.127358053     3.458283741     0.793067551
 C       -1.677033306     2.139990238     0.810418127
 C       -2.020821213     5.782715693    -0.010597946
 C       -1.520239183     6.788433952    -0.747767294
 C       -2.017600020     8.159425971    -0.730380903
 C       -3.086453938     8.567603754     0.072678497
 C       -3.527143660     9.891696972     0.055105707
 C       -2.901408767    10.834703317    -0.764082550
 C       -1.829187932    10.428521316    -1.570456170
 C       -1.395313150     9.106599326    -1.554800659
Si       -3.441813922    12.600651871    -0.828166508
 C       -1.874467766    13.550508069    -0.889593711
 C       -1.493517671    14.383495057    -1.866432975
 C       -0.225397594    15.117474334    -1.860958153
 C        0.073631368    15.965187332    -2.937424231
 C        1.260667813    16.679187734    -2.975355911
 C        2.222139012    16.510149743    -1.958636480
 C        1.929051598    15.658435068    -0.882536317
 C        0.708393074    14.996190309    -0.827806066
 N        3.420817502    17.264232369    -2.043301899
 C        4.176739203    17.083573758    -3.301663389
 C        4.294574667    17.220845296    -0.857243410
 C        4.645073787    15.639631042    -3.569369642
 C        3.796631168    14.965865962    -4.666655176
 N        3.947990736    13.497541601    -4.730506589
 C        3.412364697    12.813817525    -3.604255059
 C        2.038303590    12.976181719    -3.342841104
 C        1.457117424    12.337005424    -2.261625950
 C        2.195917739    11.460232729    -1.453250999
 C        3.549948342    11.277015023    -1.737441906
 C        4.158930755    11.945302335    -2.796309407
 C        5.297338641    13.085242648    -5.152483143
 C        1.519927364    10.816446355    -0.324432940
 C        2.112141787     9.962236884     0.519179923
Si        1.292909738     9.142070902     1.938830033
 C        2.200736064     9.654196498     3.463490172
 C        2.789572560    10.923786338     3.529011756
 C        3.476894463    11.322971497     4.672062965
 C        3.583422193    10.470235742     5.779129333
 C        2.989932501     9.206766479     5.711559757
 C        2.305199165     8.801433822     4.566188654
 C        4.314083558    10.933776755     6.954415742
 C        4.493542829    10.215113171     8.075708898
 C        5.223941841    10.677706055     9.251355103
 C        5.818474967    11.940627608     9.321812909
 C        6.507399484    12.341488201    10.466171566
 C        6.625217423    11.482571520    11.564053978
 C        6.031291585    10.215979421    11.495490311
 C        5.337006183     9.821386525    10.354645254
Si        7.536153008    12.008260003    13.081424484
 C        8.848282022    13.265456928    12.641427107
 C        6.309343408    12.765164758    14.270444936
 C        8.358529118    10.528500400    13.875020933
 C       -0.463684603     9.733884166     2.150508910
 C        1.326401457     7.296865512     1.677959740
 C       -4.499323650    12.869155153    -2.339318034
 C       -4.375058986    13.080360104     0.713822675
 C       -0.637487089    -0.845313121    -1.539484737
 C       -0.611366617    -0.909484128     1.514075767
 H        0.835955513     2.443480310    -1.486289894
 H        0.042529567     4.737134623    -1.489492884
 H       -2.962094179     3.746036857     1.429668648
 H       -2.189357631     1.440647397     1.476709076
 H       -2.862221361     5.952625025     0.667254691
 H       -0.678571296     6.617412149    -1.426725004
 H       -3.587606654     7.850580595     0.719965083
 H       -4.368274108    10.152741091     0.702009379
 H       -1.305151094    11.123182875    -2.237025096
 H       -0.556841615     8.810441886    -2.184953975
 H       -1.234168568    13.379207587    -0.007052188
 H       -2.107900633    14.581850909    -2.753554907
 H       -0.644675120    16.081905137    -3.748910227
 H        1.452404338    17.372976534    -3.789937291
 H        2.650569217    15.495792570    -0.086983173
 H        0.497853911    14.352123943     0.028597781
 H        5.095144282    17.971445595    -0.975862988
 H        4.761701269    16.240105146    -0.674840764
 H        3.712855155    17.511893830     0.035575069
 H        5.532351266    13.569956491    -6.115774541
 H        5.303206837    11.994791792    -5.329411670
 H        6.094255298    13.332290790    -4.434655042
 H        1.436224995    13.620383313    -3.981481041
 H        0.397410451    12.504272143    -2.053375867
 H        4.150581098    10.606360131    -1.122288966
 H        5.218089047    11.792647731    -2.976848523
 H        0.460992428    11.100676327    -0.234999161
 H        3.172473240     9.688105315     0.401288334
 H        2.737714114    11.630505123     2.693634005
 H        3.934108722    12.309898033     4.704290626
 H        3.058968162     8.525202488     6.557258245
 H        1.864805387     7.800546141     4.569103300
 H        4.726000458    11.943529395     6.867853174
 H        4.081462640     9.205377880     8.161734845
 H        5.746581391    12.625574975     8.478833918
 H        6.948555251    13.342029804    10.462223939
 H        6.090840560     9.502166622    12.321691207
 H        4.880224545     8.833930388    10.321526621
 H        3.542990425    17.455211367    -4.137907161
 H        5.053396698    17.769249491    -3.269389625
 H        5.710520255    15.630846766    -3.856225487
 H        4.585061424    15.039730268    -2.639187788
 H        2.716880672    15.194974101    -4.505011998
 H        4.056232159    15.378747743    -5.666004514
 H        2.270347533    -1.028177206     0.044582872
 H        2.268466094     0.550542213     0.871455087
 H        2.278594885     0.475986822    -0.908320526
 H        9.448626437    13.542065405    13.526361456
 H        8.407405005    14.194078682    12.238865902
 H        9.543310543    12.867712028    11.879913134
 H        5.807009676    13.642757628    13.825094457
 H        5.521526917    12.042558547    14.549452136
 H        6.802437352    13.098413907    15.200401753
 H        9.026585900    10.012640787    13.161664730
 H        8.969932594    10.829858914    14.744100113
 H        7.618820245     9.790745286    14.231705665
 H       -0.500684524    10.808503908     2.403171351
 H       -1.051671040     9.589453122     1.223489162
 H       -0.978847262     9.184599179     2.957510637
 H        2.354372189     6.915749107     1.548348143
 H        0.871919185     6.756210713     2.527078688
 H        0.751659822     7.017527630     0.773323481
 H       -3.963387571    12.591951964    -3.265505107
 H       -5.418749285    12.257177860    -2.298960028
 H       -4.809198929    13.925160882    -2.434029557
 H       -3.794507505    12.857484731     1.627536654
 H       -4.600139882    14.162733681     0.723237981
 H       -5.337317309    12.544112895     0.789789990
 H       -0.288789561    -0.333862303    -2.454528761
 H       -0.297988535    -1.894656287    -1.592701504
 H       -1.742249166    -0.849825853    -1.566417112
 H       -0.306133293    -0.394685441     2.442859871
 H       -1.712286745    -0.994192191     1.523132911
 H       -0.202262554    -1.934959688     1.554907356

