139   

Si        0.000000000     0.000000000     0.000000000
 C        1.869491429     0.000000000     0.000000000
 C       -0.654189328     1.724707883     0.000000000
 C        0.189301341     2.826418642     0.169464609
 C       -0.328099827     4.121584293     0.165952841
 C       -1.694573788     4.345719382    -0.022152146
 C       -2.538479480     3.240174711    -0.191776341
 C       -2.027320138     1.945398078    -0.173446661
 C       -2.275764208     5.684212085    -0.032606328
 C       -1.568403975     6.814153164     0.134474542
 C       -2.128690680     8.160468197     0.127527365
 C       -1.259520279     9.242393866     0.315681138
 C       -1.740279595    10.549335320     0.318208451
 C       -3.104841937    10.802629274     0.143013583
 C       -3.976811628     9.722969386    -0.044560490
 C       -3.490734271     8.416447270    -0.056239856
Si       -3.761046798    12.525013190     0.143217899
 C       -4.529536374    12.871608598    -1.482781338
 C       -4.589989580    11.993433206    -2.492135274
 C       -5.206372287    12.278127538    -3.789778203
 C       -5.208082520    11.274857101    -4.770829910
 C       -5.779656290    11.498185185    -6.013730704
 C       -6.362452935    12.744163920    -6.304289119
 C       -6.356903304    13.752579904    -5.332835797
 C       -5.777032350    13.516368962    -4.090969419
 N       -6.933954611    12.904884033    -7.607061316
 C       -8.176571049    12.107385460    -7.751576661
 C       -7.111528022    14.302545218    -8.041087082
 C       -9.209618495    12.363664367    -6.638417960
 C      -10.163275021    11.181007838    -6.398579013
 N       -9.646806511    10.034889494    -5.642734207
 C       -9.397295810    10.149130707    -4.264319877
 C       -9.465368486    11.363920854    -3.558505952
 C       -9.205240610    11.399363705    -2.194079896
 C       -8.959693575    10.226992076    -1.469288620
 C       -8.919625370     9.015061798    -2.169467371
 C       -9.116397362     8.969969487    -3.539838256
 C       -8.738337300     9.145983557    -6.383774959
 C       -8.689536025    10.308289167    -0.031477806
 C       -8.444240799     9.241422811     0.741282600
Si       -8.098663116     9.257355853     2.539361998
 C       -6.428526822     8.523095735     2.807382589
 C       -6.275880522     7.136282889     2.685123859
 C       -5.032066925     6.541258539     2.879369695
 C       -3.915276894     7.313206655     3.215573490
 C       -4.070420282     8.699108760     3.338770543
 C       -5.311427604     9.299236216     3.131068213
 C       -2.598316108     6.720555133     3.425871025
 C       -2.344531898     5.404320105     3.331249049
 C       -1.041079965     4.784017268     3.535597027
 C        0.103898480     5.517418318     3.858821672
 C        1.328248686     4.877190183     4.044295861
 C        1.429091309     3.485852695     3.929264467
 C        0.281973754     2.749231750     3.613432136
 C       -0.937587213     3.392137508     3.417503588
Si        3.055515346     2.651808838     4.177247717
 C        3.899050729     3.354946580     5.688968827
 C        2.814955011     0.811037470     4.402946979
 C        4.096865087     2.956441327     2.653723235
 C       -8.169961312    10.990519866     3.235210823
 C       -9.388166472     8.211344791     3.399573417
 C       -5.075693172    12.693578256     1.459238942
 C       -2.400086985    13.768850621     0.444130980
 C       -0.615652675    -0.890062336    -1.523750777
 C       -0.614546020    -0.862728384     1.541593271
 H        1.267119247     2.717139717     0.319292801
 H        0.348721769     4.961396754     0.317128129
 H       -3.605943715     3.393192007    -0.336342763
 H       -2.734381083     1.122157319    -0.303419929
 H       -3.357445162     5.718640252    -0.186769802
 H       -0.486354345     6.771767314     0.295291940
 H       -0.196246761     9.062917688     0.460483457
 H       -1.014078691    11.352881669     0.463689366
 H       -5.055938047     9.860581391    -0.179968578
 H       -4.187935341     7.591884814    -0.196951514
 H       -4.951680678    13.883344616    -1.576315935
 H       -4.177382349    10.975618039    -2.423819985
 H       -4.758848129    10.304967596    -4.552662490
 H       -5.763019476    10.723465872    -6.777079735
 H       -6.805806297    14.720236113    -5.535375805
 H       -5.781275378    14.311716114    -3.345309792
 H       -7.333428850    14.303896019    -9.122637364
 H       -6.163233541    14.851485828    -7.905681195
 H       -7.913886388    14.845819591    -7.520271763
 H       -8.943231534     9.192819457    -7.465214703
 H       -8.915157646     8.100288238    -6.071416502
 H       -7.674143281     9.385170657    -6.210858078
 H       -9.697752385    12.291082112    -4.071792849
 H       -9.209810860    12.361458908    -1.680690643
 H       -8.720805028     8.085402952    -1.634027298
 H       -9.073467857     8.014100059    -4.053502259
 H       -8.702088133    11.334699626     0.355942512
 H       -8.436079290     8.225516129     0.312428533
 H       -7.111580711     6.478057057     2.432323268
 H       -4.936754925     5.462246209     2.771202532
 H       -3.211375137     9.319671447     3.587953680
 H       -5.370850006    10.385953094     3.233322698
 H       -1.804500734     7.431452673     3.667824505
 H       -3.144481304     4.700920533     3.078334369
 H        0.046687388     6.599476125     3.960892504
 H        2.190867133     5.502923335     4.287204091
 H        0.299487157     1.661016026     3.511612588
 H       -1.816435087     2.803343543     3.158591997
 H       -8.616726152    12.314472628    -8.749351405
 H       -7.867763721    11.039283714    -7.766552008
 H       -8.684775356    12.603821260    -5.689244346
 H       -9.801180672    13.265539786    -6.880145063
 H      -11.066774661    11.549592994    -5.851867241
 H      -10.539224772    10.795828006    -7.375202799
 H        2.267656390    -1.029774518    -0.021175085
 H        2.277429282     0.493381436     0.900422824
 H        2.271430070     0.528181731    -0.883121048
 H        4.844778402     2.827235564     5.903769014
 H        3.256228801     3.262351999     6.583370533
 H        4.137538596     4.425493640     5.563480281
 H        2.134901276     0.595944962     5.246626719
 H        2.386208645     0.341810176     3.499327359
 H        3.773937813     0.305929489     4.613580909
 H        4.242621771     4.036859065     2.476765757
 H        5.094943433     2.495403020     2.749364996
 H        3.618636993     2.536484318     1.750450211
 H       -7.473645312    11.673431672     2.716261071
 H       -9.185222220    11.415179113     3.138590001
 H       -7.909098103    10.999314658     4.308670104
 H       -9.415312632     7.180986202     3.005478122
 H       -9.188838292     8.147062434     4.484319104
 H      -10.398048003     8.640509620     3.270643377
 H       -5.928655011    12.023845527     1.240505100
 H       -4.681161080    12.432410864     2.456726673
 H       -5.465124126    13.724673101     1.512284470
 H       -1.622631741    13.712763706    -0.339368377
 H       -2.791011754    14.801508029     0.443393478
 H       -1.907979123    13.601978471     1.418342327
 H       -0.282718860    -0.379293517    -2.445627294
 H       -0.239350002    -1.927114901    -1.564265898
 H       -1.718286525    -0.934846179    -1.552498982
 H       -0.238436301    -0.369429080     2.455926388
 H       -1.717644309    -0.856367563     1.593399876
 H       -0.285091710    -1.915743666     1.570746411

