139   

Si        0.000000000     0.000000000     0.000000000
 C        1.872243773     0.000000000     0.000000000
 C       -0.558105555     1.759228906     0.000000000
 C       -0.619179881     2.475013103    -1.200929563
 C       -1.039114349     3.803931698    -1.212920773
 C       -1.412937126     4.445841283    -0.028802131
 C       -1.360091630     3.725378819     1.170921917
 C       -0.943680512     2.396036122     1.185549128
 C       -1.858083786     5.834786966     0.002117580
 C       -1.954013263     6.626858900    -1.079289090
 C       -2.398707899     8.015597518    -1.051057920
 C       -2.453589050     8.733163061    -2.253611642
 C       -2.872236937    10.061402196    -2.273056216
 C       -3.195514489    10.717946673    -1.079675096
 C       -3.119569553    10.010662497     0.125086577
 C       -2.728059884     8.672748467     0.137412709
Si       -3.752441102    12.476981648    -1.079615821
 C       -3.550670065    13.098580936     0.630769636
 C       -4.537615426    13.570308458     1.403117246
 C       -4.343253529    14.060696772     2.768685461
 C       -5.457312967    14.531358466     3.479651238
 C       -5.329796243    15.005976896     4.773367025
 C       -4.074628130    14.982602404     5.420786222
 C       -2.957867198    14.510774042     4.711057902
 C       -3.096462057    14.077502898     3.397085069
 N       -3.991111218    15.475712263     6.737300610
 C       -5.056817729    15.056844249     7.671948640
 C       -2.657824008    15.542796079     7.351555709
 C       -5.569210005    13.612749246     7.531777575
 C       -4.721764748    12.537996560     8.238498526
 N       -3.951627818    11.634054370     7.365832231
 C       -4.572859773    11.051928883     6.254201038
 C       -5.974299418    10.884431714     6.220564099
 C       -6.585070563    10.307672321     5.118071816
 C       -5.833141889     9.798240209     4.050977229
 C       -4.442438319     9.932956808     4.101309968
 C       -3.816286477    10.552152819     5.173682906
 C       -2.528136239    11.973455948     7.233857765
 C       -6.531131961     9.199934752     2.911951912
 C       -5.918316755     8.682477300     1.838953230
Si       -6.762491591     7.928259915     0.400530731
 C       -6.209125825     6.174493680     0.246794274
 C       -6.136868722     5.378725380     1.396425036
 C       -5.722718880     4.051130914     1.312408164
 C       -5.367477524     3.490082414     0.081933687
 C       -5.432784856     4.290566543    -1.065112275
 C       -5.843344434     5.619989897    -0.984119545
 C       -4.928809016     2.104099246    -0.047577902
 C       -4.826109576     1.241734295     0.977987217
 C       -4.389144433    -0.144833573     0.860691033
 C       -4.027211915    -0.720671528    -0.360573892
 C       -3.615195513    -2.050982546    -0.426199946
 C       -3.566013628    -2.840391671     0.729014764
 C       -3.931974218    -2.267300972     1.952204807
 C       -4.337241318    -0.935753344     2.015860863
Si       -3.016121529    -4.598029952     0.608519180
 C       -4.262806618    -5.542421597    -0.413949415
 C       -1.339724480    -4.653970365    -0.218278776
 C       -2.887532871    -5.369724832     2.305948693
 C       -8.619343273     7.932590741     0.625330842
 C       -6.329130121     8.880381778    -1.142708661
 C       -2.674634420    13.494911278    -2.215666380
 C       -5.532075137    12.564826035    -1.636374043
 C       -0.604936413    -0.859267826    -1.545886178
 C       -0.615604085    -0.883110059     1.522154144
 H       -0.343738121     2.025749888    -2.158573528
 H       -1.078028406     4.339494676    -2.159333007
 H       -1.659424519     4.202993385     2.102119364
 H       -0.936679810     1.879662811     2.149248384
 H       -2.133160660     6.206161798     0.994304719
 H       -1.692115049     6.249691145    -2.071325716
 H       -2.181977262     8.244372041    -3.186646898
 H       -2.918153088    10.564080405    -3.242050271
 H       -3.362169393    10.478574116     1.086834987
 H       -2.676256298     8.138795988     1.085578677
 H       -2.511088516    13.060925004     0.994088594
 H       -5.583208097    13.617740212     1.071187706
 H       -6.439854516    14.531312332     3.005868468
 H       -6.197923106    15.406080576     5.290595695
 H       -1.975384720    14.488415807     5.170246457
 H       -2.212248911    13.727162842     2.861621284
 H       -2.718558577    16.128202345     8.285859317
 H       -1.972989068    16.093767114     6.680691745
 H       -2.217744417    14.561595351     7.582693938
 H       -2.152508997    12.433936894     8.161493084
 H       -2.324959747    12.653941975     6.387964656
 H       -1.947936122    11.042119370     7.087089510
 H       -6.586395720    11.207515761     7.056035234
 H       -7.672410393    10.228649438     5.097826575
 H       -3.830075811     9.554938806     3.280356505
 H       -2.736197521    10.653452768     5.157597078
 H       -7.623297469     9.218014710     3.019576236
 H       -4.819874705     8.676926347     1.758631447
 H       -6.394313705     5.766007833     2.387381711
 H       -5.672748338     3.452279773     2.219632402
 H       -5.149357134     3.876491077    -2.030510408
 H       -5.860604540     6.200997460    -1.909944056
 H       -4.669342325     1.797633441    -1.064899659
 H       -5.076298410     1.556354590     1.995420737
 H       -4.062398782    -0.127190311    -1.272973117
 H       -3.344361431    -2.446591089    -1.409396110
 H       -3.914680740    -2.835123444     2.885960509
 H       -4.617648170    -0.507887122     2.976418814
 H       -4.723695454    15.243139739     8.715636794
 H       -5.911260035    15.758140600     7.496567381
 H       -6.603288928    13.573622906     7.928509562
 H       -5.679175908    13.352817707     6.455936376
 H       -4.028269377    13.013081443     8.966059769
 H       -5.393772727    11.883626661     8.848222399
 H        2.273344101    -1.027899948    -0.015009470
 H        2.272344784     0.503017176     0.898259121
 H        2.273742051     0.530748689    -0.880904267
 H       -3.980280477    -6.604970879    -0.513803212
 H       -4.353022858    -5.123390421    -1.431819452
 H       -5.267014141    -5.506600664     0.046250587
 H       -1.374970629    -4.228141632    -1.236449353
 H       -0.591071825    -4.078070116     0.355879324
 H       -0.969084180    -5.690525643    -0.302851360
 H       -3.864880162    -5.383492798     2.820282403
 H       -2.534874570    -6.414689828     2.242605571
 H       -2.176911683    -4.819863310     2.948390905
 H       -8.918978136     7.362959532     1.522694816
 H       -9.009884908     8.959556166     0.730214346
 H       -9.125160124     7.469830312    -0.240773928
 H       -5.235494509     8.871190016    -1.324449725
 H       -6.819155091     8.456103292    -2.035251886
 H       -6.640676302     9.936777282    -1.062234550
 H       -1.606559666    13.401994813    -1.948475093
 H       -2.782245794    13.179969237    -3.267986546
 H       -2.937151587    14.566814221    -2.160252867
 H       -6.201391581    12.046039171    -0.924550170
 H       -5.875529041    13.611609948    -1.715335627
 H       -5.669173355    12.093882794    -2.625631908
 H       -0.091164419    -0.485162727    -2.447592293
 H       -0.431080087    -1.948327200    -1.488244509
 H       -1.689334261    -0.700738311    -1.687484431
 H       -0.237490544    -0.419577119     2.449166261
 H       -1.723292482    -0.867670651     1.567306839
 H       -0.302317094    -1.941573013     1.529058076

