139   

Si        0.000000000     0.000000000     0.000000000
 C        1.869409697     0.000000000     0.000000000
 C       -0.636173281     1.733353444     0.000000000
 C        0.105148904     2.766744424     0.582968311
 C       -0.377587262     4.074953164     0.581616243
 C       -1.613970543     4.379682556     0.005562698
 C       -2.357542511     3.342871106    -0.573095304
 C       -1.876808837     2.035766187    -0.575339414
 C       -2.158521578     5.733310543    -0.018915781
 C       -1.546944339     6.812903340     0.497318715
 C       -2.091191326     8.166486331     0.472987527
 C       -3.327510534     8.470613972    -0.103146320
 C       -3.809490838     9.779189036    -0.104042331
 C       -3.065478184    10.810056448     0.478080983
 C       -1.826419903    10.509109231     1.057639295
 C       -1.345922106     9.202433000     1.052444500
Si       -3.689494327    12.546906551     0.485039129
 C       -2.261896412    13.611241134     0.062167183
 C       -1.728856558    14.586488135     0.809192509
 C       -0.579461131    15.387908875     0.381809694
 C       -0.083333396    16.390758945     1.226092350
 C        1.002380088    17.168201740     0.854373974
 C        1.630462685    16.969734018    -0.393845628
 C        1.159230664    15.937580719    -1.221913197
 C        0.100556686    15.137316442    -0.813408167
 N        2.735550844    17.774492439    -0.750772261
 C        2.616930354    19.208967666    -0.406299438
 C        3.290959513    17.550763516    -2.097404831
 C        1.293240759    19.882595450    -0.815204307
 C        1.280787551    20.371182894    -2.277060065
 N       -0.011427884    20.198247763    -2.980829290
 C       -0.270300640    18.823853320    -3.296345298
 C        0.374820184    18.317456678    -4.437073108
 C        0.179381955    16.997217450    -4.813805627
 C       -0.639727905    16.145739727    -4.057580757
 C       -1.292628274    16.666107293    -2.936238378
 C       -1.138054697    18.000114586    -2.571511160
 C       -1.126520342    20.890124795    -2.309959266
 C       -0.812527618    14.758532034    -4.500353363
 C       -1.567463754    13.855114526    -3.862554360
Si       -1.814499486    12.110963836    -4.376333203
 C       -3.622156080    11.894401540    -4.667487794
 C       -4.315310774    12.786136047    -5.495340203
 C       -5.680470085    12.624007089    -5.716266912
 C       -6.385879138    11.574908153    -5.110998883
 C       -5.691314062    10.690075954    -4.281839028
 C       -4.323533891    10.847643719    -4.060924888
 C       -7.815599480    11.446392893    -5.373139181
 C       -8.602834059    10.486400220    -4.858666245
 C      -10.032613424    10.355678137    -5.119186303
 C      -10.731640607    11.238617787    -5.948059297
 C      -12.098055394    11.076782531    -6.169690396
 C      -12.798330072    10.025868466    -5.564721054
 C      -12.101127198     9.141045071    -4.734895584
 C      -10.734772209     9.304779782    -4.516043078
Si      -14.608061187     9.837463997    -5.877510755
 C      -15.473888383    11.411446495    -5.361725487
 C      -14.870209315     9.529764033    -7.702104948
 C      -15.304575026     8.402991598    -4.902406443
 C       -0.904461824    11.724545958    -5.960661071
 C       -1.190654429    10.990589849    -3.021757516
 C       -4.998703645    12.790974168    -0.823520560
 C       -4.388909606    12.937654057     2.169793061
 C       -0.604129426    -0.901118767    -1.522546032
 C       -0.632528545    -0.856529742     1.535454484
 H        1.078349201     2.590967853     1.049809119
 H        0.221008198     4.861564798     1.037862994
 H       -3.323067140     3.557977612    -1.027235324
 H       -2.501120141     1.269553051    -1.043151733
 H       -3.135758964     5.824137847    -0.502187444
 H       -0.570121231     6.721087820     0.981560390
 H       -3.925467710     7.684100215    -0.559347447
 H       -4.781404216     9.958056544    -0.573222205
 H       -1.200392899    11.279093739     1.520691565
 H       -0.379971730     8.985681019     1.504943415
 H       -1.831497958    13.363222620    -0.923821859
 H       -2.118001429    14.866085768     1.794845057
 H       -0.561188414    16.570863283     2.188934203
 H        1.377147376    17.926769773     1.535524618
 H        1.613297436    15.743658696    -2.190133001
 H       -0.213043649    14.316036149    -1.463300866
 H        4.157047895    18.212975753    -2.258416854
 H        2.564241758    17.715440798    -2.912054490
 H        3.665581709    16.512657530    -2.162433855
 H       -0.904984505    21.971217859    -2.292362150
 H       -1.324789057    20.559939218    -1.279264643
 H       -2.045988177    20.751750747    -2.905771132
 H        1.012003551    18.975192291    -5.025280517
 H        0.672474517    16.619231927    -5.708795338
 H       -1.951195463    16.030691383    -2.338877914
 H       -1.669874215    18.381716725    -1.703878393
 H       -0.249103511    14.523866373    -5.412451380
 H       -2.132992559    14.128904109    -2.954778849
 H       -3.817913713    13.628343333    -5.986511842
 H       -6.204340275    13.323806809    -6.364759311
 H       -6.215490035     9.866721579    -3.800326293
 H       -3.833638372    10.124582642    -3.400551831
 H       -8.228999818    12.207645464    -6.041252671
 H       -8.188696868     9.724470323    -4.191553071
 H      -10.209624737    12.063751041    -6.429623115
 H      -12.589732163    11.798337139    -6.828453185
 H      -12.595163542     8.302612023    -4.236539368
 H      -10.210337893     8.605130317    -3.867864095
 H        2.744038217    19.284658848     0.700383713
 H        3.480992691    19.755114010    -0.842589939
 H        0.453817804    19.174665061    -0.649631166
 H        1.090352868    20.731014659    -0.136787580
 H        1.533387395    21.453952835    -2.322038768
 H        2.061499646    19.848101917    -2.872163211
 H        2.268372816    -1.027770550    -0.068198294
 H        2.279696190     0.452344836     0.919793592
 H        2.269120290     0.568657062    -0.859207263
 H      -16.567151776    11.331466081    -5.494402643
 H      -15.128525252    12.277764178    -5.953066921
 H      -15.283308378    11.641431294    -4.297515481
 H      -14.457452312    10.350520848    -8.315128215
 H      -14.374142189     8.596474828    -8.025318778
 H      -15.943441573     9.437960210    -7.944755764
 H      -15.158011158     8.542840542    -3.816489342
 H      -16.390022181     8.293172203    -5.076835626
 H      -14.827203556     7.448594285    -5.187204230
 H       -1.239115913    12.372127565    -6.790335099
 H        0.185372217    11.860541211    -5.845552997
 H       -1.075849186    10.678494647    -6.273549535
 H       -1.800580843    11.057274874    -2.102259339
 H       -1.200094919     9.931649594    -3.337884745
 H       -0.150826990    11.239507722    -2.740013517
 H       -4.663569182    12.432857156    -1.816056369
 H       -5.929255567    12.250895773    -0.576219218
 H       -5.258265074    13.859598150    -0.936455467
 H       -3.628596559    12.816592277     2.962155592
 H       -4.763466988    13.975520905     2.220035703
 H       -5.231936005    12.268579059     2.419563683
 H       -0.314153576    -0.366112246    -2.445087423
 H       -0.176980388    -1.918073517    -1.580638299
 H       -1.703260027    -1.004431661    -1.528787766
 H       -0.285539066    -0.346654453     2.452273304
 H       -1.737020651    -0.867088358     1.563687867
 H       -0.286775882    -1.903986096     1.584031931

