139   

Si        0.000000000     0.000000000     0.000000000
 C        1.869479783     0.000000000     0.000000000
 C       -0.627075926     1.736785163     0.000000000
 C        0.090450698     2.750718332     0.644259362
 C       -0.380857339     4.062976559     0.645739835
 C       -1.582552309     4.391395948     0.011927882
 C       -2.302293651     3.374128512    -0.628078335
 C       -1.832305545     2.062991337    -0.633874263
 C       -2.114050588     5.750297569    -0.011957978
 C       -1.521635096     6.812808629     0.559219861
 C       -2.052412511     8.171973814     0.535811527
 C       -1.329169710     9.188697381     1.173871897
 C       -1.795759665    10.500884633     1.178098296
 C       -3.004171316    10.824335459     0.549701514
 C       -3.729243906     9.811680777    -0.087311806
 C       -3.255160262     8.500481153    -0.095909640
Si       -3.633408949    12.558260117     0.547983586
 C       -5.450960029    12.495870041     0.318653539
 C       -6.125816551    13.055366438    -0.693504551
 C       -7.581242117    12.985705918    -0.845799369
 C       -8.174621563    13.613599307    -1.952046140
 C       -9.545955888    13.576725621    -2.141301703
 C      -10.367302530    12.875618036    -1.235119776
 C       -9.779348795    12.250288143    -0.125953129
 C       -8.404273978    12.325792171     0.069658892
 N      -11.762260299    12.878859299    -1.488820873
 C      -12.168273062    12.243774116    -2.758822976
 C      -12.626331898    12.532659106    -0.350435533
 C      -12.412010609    10.724793244    -2.716898641
 C      -11.153887757     9.878756529    -2.446342718
 N      -10.237745558     9.716857619    -3.586340001
 C      -10.773993772     9.284029135    -4.804746072
 C      -11.841173298     8.357532391    -4.808011705
 C      -12.383928541     7.918448677    -6.003907614
 C      -11.863961544     8.339092284    -7.236718379
 C      -10.788246592     9.231736187    -7.231037535
 C      -10.241218846     9.696062570    -6.042522060
 C       -9.137699044    10.688346523    -3.631220688
 C      -12.475817490     7.844106995    -8.470581624
 C      -12.063605812     8.177578065    -9.700821045
Si      -12.800044602     7.581806352   -11.268016566
 C      -11.493027725     6.686031425   -12.213765674
 C      -10.427589064     6.080221341   -11.538972456
 C       -9.436211512     5.401615159   -12.246533159
 C       -9.491097351     5.307332443   -13.640059676
 C      -10.561563560     5.911620798   -14.312550202
 C      -11.552098003     6.592961800   -13.609319240
 C       -8.476838689     4.607713456   -14.422089017
 C       -7.403461954     3.987911231   -13.902701450
 C       -6.389320239     3.288359198   -14.684793798
 C       -6.442057097     3.196332742   -16.078343252
 C       -5.450647794     2.517542589   -16.786150675
 C       -4.387383139     1.905891763   -16.113561392
 C       -4.332857367     1.995570744   -14.716838570
 C       -5.319816224     2.681325627   -14.013204787
Si       -3.072244112     1.005983267   -17.045966223
 C       -3.759309424     0.349248608   -18.655861032
 C       -1.677228227     2.199249393   -17.394592593
 C       -2.440151014    -0.429680064   -16.028624891
 C      -14.221150671     6.408902110   -10.965591849
 C      -13.395146307     9.068883287   -12.230869855
 C       -3.286378231    13.380091660     2.188920528
 C       -2.792298503    13.497522825    -0.828223899
 C       -0.606074525    -0.902870787    -1.520546886
 C       -0.634014504    -0.853440430     1.536548697
 H        1.035881828     2.556020846     1.158284317
 H        0.199244626     4.833899366     1.150056094
 H       -3.240632861     3.607634825    -1.128333851
 H       -2.436633010     1.312877339    -1.151390971
 H       -3.063483464     5.860925617    -0.544495933
 H       -0.572243091     6.701970849     1.091463963
 H       -0.390245235     8.953303112     1.671571530
 H       -1.188295827    11.252305371     1.689680982
 H       -4.680099807    10.008285094    -0.594283456
 H       -3.835749448     7.730078374    -0.600722012
 H       -5.974216884    11.940210542     1.114232080
 H       -5.632536352    13.616073850    -1.498397203
 H       -7.550317204    14.150886058    -2.666786529
 H       -9.999189148    14.100569386    -2.980953301
 H      -10.388801765    11.709675183     0.592198022
 H       -7.968219337    11.843815174     0.946298132
 H      -13.676363259    12.734647137    -0.625838145
 H      -12.381136122    13.192732220     0.501294532
 H      -12.547852936    11.485944695    -0.017852049
 H       -8.774113494    10.899083461    -2.607989196
 H       -9.414042618    11.648719777    -4.096072738
 H       -8.287484665    10.250152780    -4.185879941
 H      -12.239683248     7.982666145    -3.870154228
 H      -13.220640534     7.219422324    -5.982791838
 H      -10.363213919     9.574023968    -8.176384670
 H       -9.409211923    10.391481941    -6.084450162
 H      -13.317097522     7.161296594    -8.292059877
 H      -11.215595420     8.865899393    -9.848694999
 H      -10.332996674     6.121446007   -10.448276926
 H       -8.614726605     4.942028562   -11.699534192
 H      -10.622440717     5.849927339   -15.397352047
 H      -12.361721998     7.046136592   -14.187346195
 H       -8.646366026     4.616203731   -15.502786138
 H       -7.233926022     3.979238192   -12.821741282
 H       -7.262291055     3.657827874   -16.625412720
 H       -5.545473009     2.482493776   -17.874971505
 H       -3.526679228     1.537073736   -14.137474502
 H       -5.258312962     2.741877331   -12.928014813
 H      -13.109927949    12.753558225    -3.076783636
 H      -11.413259695    12.477391447    -3.542303762
 H      -13.177121548    10.485310316    -1.954969031
 H      -12.863730043    10.419180106    -3.684830510
 H      -10.585270320    10.303250607    -1.587392973
 H      -11.461611665     8.854669317    -2.122912806
 H        2.268702159    -1.028092074    -0.061386805
 H        2.280000026     0.458936925     0.916321212
 H        2.268962236     0.563136890    -0.863003054
 H       -3.005773434    -0.250825608   -19.196347252
 H       -4.075798144     1.164561083   -19.329629789
 H       -4.636623971    -0.299610893   -18.481203000
 H       -2.024353701     3.057853098   -17.997223109
 H       -1.251322617     2.605311275   -16.459460301
 H       -0.858293319     1.709823021   -17.950288862
 H       -3.264341156    -1.106269572   -15.738277597
 H       -1.704144529    -1.027554317   -16.594897676
 H       -1.945943869    -0.089385775   -15.101921887
 H      -13.894941231     5.521617089   -10.392766382
 H      -15.033428738     6.896592213   -10.398241624
 H      -14.649873785     6.045488224   -11.916687365
 H      -12.556254389     9.736256069   -12.498925961
 H      -13.899121471     8.773281891   -13.167188526
 H      -14.115029113     9.662856466   -11.639039840
 H       -3.703529785    12.795118326     3.028646113
 H       -2.202615449    13.492397732     2.367165886
 H       -3.736281968    14.388825003     2.232064746
 H       -2.986564118    13.031277274    -1.811396818
 H       -3.141887237    14.544153408    -0.876306382
 H       -1.696416974    13.518565688    -0.687215858
 H       -0.313095348    -0.371767325    -2.444372947
 H       -0.182400176    -1.921512603    -1.575613053
 H       -1.705565193    -1.002813078    -1.526908367
 H       -0.287292588    -0.342118321     2.452584914
 H       -1.738535781    -0.863611641     1.564358487
 H       -0.288830311    -1.901008100     1.586999329

