139   

Si        0.000000000     0.000000000     0.000000000
 C        1.868223035     0.000000000     0.000000000
 C       -0.641954548     1.731523563     0.000000000
 C        0.142320552     2.788435867    -0.473772830
 C       -0.348829713     4.093526462    -0.470834686
 C       -1.625759137     4.374624888     0.022779306
 C       -2.410220247     3.315013537     0.496942423
 C       -1.929368928     2.008310252     0.477620268
 C       -2.181136303     5.723918025     0.045850346
 C       -1.542103896     6.821251251    -0.394507026
 C       -2.098563177     8.170151960    -0.370919197
 C       -1.325987854     9.231330165    -0.861844099
 C       -1.819274815    10.533335492    -0.857524729
 C       -3.110566019    10.802483261    -0.383741631
 C       -3.883718251     9.744324954     0.103054610
 C       -3.379069927     8.444426107     0.116920282
Si       -3.747514123    12.532655942    -0.385380497
 C       -3.957807831    13.206648044    -2.072294756
 C       -3.708367088    12.600323782    -3.240802986
 C       -3.916863480    13.245859214    -4.540840424
 C       -3.632475461    12.545236721    -5.719609402
 C       -3.819411244    13.128967841    -6.966450574
 C       -4.354167705    14.424974337    -7.074588985
 C       -4.648577744    15.129794724    -5.889262056
 C       -4.412958537    14.550453752    -4.652372584
 N       -4.568436283    15.072890675    -8.307926329
 C       -4.170299051    14.398716130    -9.549082223
 C       -5.828078600    15.828132938    -8.423602601
 C       -5.171967793    13.351427402   -10.069103382
 C       -4.587896808    12.611827118   -11.290331338
 N       -4.832866373    11.152567581   -11.287772394
 C       -4.411490927    10.503047456   -10.098967618
 C       -3.104802885    10.752095847    -9.630957280
 C       -2.649226148    10.140509517    -8.474577833
 C       -3.448971112     9.219665664    -7.782170144
 C       -4.731615650     8.953367392    -8.265956366
 C       -5.213978453     9.582355094    -9.408142061
 C       -6.181523897    10.813191921   -11.773299668
 C       -2.920864191     8.601153447    -6.565139803
 C       -3.595101344     7.710970269    -5.825990312
Si       -2.954537643     6.925762486    -4.302044487
 C       -2.876755695     5.092809637    -4.462864789
 C       -3.028827010     4.438370771    -5.687846683
 C       -2.961631619     3.046124018    -5.757316812
 C       -2.727482782     2.282810306    -4.610302930
 C       -2.569610808     2.942621080    -3.384368116
 C       -2.644570871     4.329648276    -3.311252390
 C       -2.648362622     0.826195730    -4.630020197
 C       -2.780341739     0.064870204    -5.729298211
 C       -2.700170966    -1.392104479    -5.742542706
 C       -2.473718627    -2.144750406    -4.586875199
 C       -2.404096464    -3.535986945    -4.643068616
 C       -2.550175727    -4.207358828    -5.861622610
 C       -2.775842105    -3.456048256    -7.021796404
 C       -2.852967966    -2.066706389    -6.960918067
Si       -2.458162618    -6.049421642    -5.937152084
 C       -1.331619854    -6.690216177    -4.589138295
 C       -4.180682537    -6.733945077    -5.699750082
 C       -1.785381253    -6.589908367    -7.595675588
 C       -1.242103124     7.555229022    -3.902342897
 C       -4.161639667     7.363154541    -2.945820454
 C       -5.410587297    12.615970286     0.466557651
 C       -2.525098417    13.610140491     0.532600260
 C       -0.636495162    -0.846065377    -1.539827660
 C       -0.612312310    -0.902554886     1.517929263
 H        1.151918501     2.632448715    -0.864543165
 H        0.277937498     4.896037520    -0.856109379
 H       -3.409706419     3.511369564     0.880939986
 H       -2.590593529     1.222120684     0.852221037
 H       -3.191513271     5.794992976     0.459689947
 H       -0.527649347     6.750278158    -0.798885447
 H       -0.325584827     9.039319792    -1.245370191
 H       -1.168200441    11.323074096    -1.244748960
 H       -4.897367963     9.893625482     0.485623378
 H       -3.998065224     7.640921761     0.512380118
 H       -4.339025813    14.242966582    -2.051527306
 H       -3.333651721    11.570981849    -3.312981556
 H       -3.258028098    11.520078554    -5.666309776
 H       -3.578718626    12.551340674    -7.856682933
 H       -5.041197556    16.140902054    -5.939704768
 H       -4.632794327    15.126983561    -3.752725115
 H       -5.966884660    16.190697530    -9.454771763
 H       -5.778353132    16.720085820    -7.773288256
 H       -6.712746568    15.235617688    -8.138592858
 H       -6.334930253    11.276164592   -12.763318336
 H       -6.993866012    11.139888049   -11.105336974
 H       -6.253698295     9.720839327   -11.920768588
 H       -2.451496328    11.426082491   -10.179157445
 H       -1.645262904    10.365104985    -8.112264980
 H       -5.376299452     8.246334937    -7.741398990
 H       -6.222565216     9.360345325    -9.742375169
 H       -1.905697298     8.936729785    -6.314771732
 H       -4.613714092     7.393684914    -6.100119473
 H       -3.205453434     4.985716153    -6.618253482
 H       -3.089912672     2.557113145    -6.720929867
 H       -2.381706202     2.370588366    -2.475115593
 H       -2.515265001     4.788142973    -2.324245294
 H       -2.465896371     0.368003248    -3.652266474
 H       -2.961483560     0.522660475    -6.705822392
 H       -2.350041378    -1.646167205    -3.626308378
 H       -2.227820511    -4.068845169    -3.704732367
 H       -2.896937877    -3.925322906    -8.001900722
 H       -3.031364507    -1.500899619    -7.873555411
 H       -4.018194704    15.191981922   -10.318850748
 H       -3.168737694    13.933891802    -9.390639948
 H       -5.415423776    12.638330018    -9.255540070
 H       -6.132695864    13.826755075   -10.328191528
 H       -4.996170598    13.038470488   -12.231788470
 H       -3.484914689    12.759432261   -11.355403228
 H        2.267825415    -1.027358316     0.071453812
 H        2.269522046     0.570352410     0.856887307
 H        2.279224490     0.447944169    -0.922237591
 H       -1.209730648    -7.785740580    -4.658609646
 H       -1.727388906    -6.465566973    -3.583417945
 H       -0.325493510    -6.238999111    -4.661384646
 H       -4.605294566    -6.425154798    -4.727602909
 H       -4.867800402    -6.374764221    -6.486915230
 H       -4.183662853    -7.837510002    -5.731074124
 H       -0.801334701    -6.129004697    -7.797008634
 H       -1.652946263    -7.685736159    -7.634892999
 H       -2.460621326    -6.309460852    -8.422832112
 H       -0.542242320     7.375260991    -4.737377912
 H       -1.253520400     8.639621405    -3.690069725
 H       -0.832218238     7.044286737    -3.013045401
 H       -5.190271992     7.059517746    -3.206530379
 H       -3.896114146     6.863112458    -1.996690587
 H       -4.171074981     8.452571545    -2.752404387
 H       -6.171901604    12.027924310    -0.077301207
 H       -5.355706712    12.227991828     1.498760340
 H       -5.779147667    13.655701422     0.523055315
 H       -1.543524998    13.628639125     0.026140545
 H       -2.880517815    14.652867917     0.605163644
 H       -2.361640394    13.239805980     1.560481459
 H       -0.306977349    -0.315958576    -2.453483943
 H       -0.266948300    -1.884711180    -1.609127477
 H       -1.740844046    -0.879311809    -1.546289748
 H       -0.312004412    -0.377537411     2.442748992
 H       -1.712454108    -0.991412890     1.529739862
 H       -0.198388679    -1.925133896     1.569725905

