139   

Si        0.000000000     0.000000000     0.000000000
 C        1.869179064     0.000000000     0.000000000
 C       -0.653811943     1.726378723     0.000000000
 C        0.180849398     2.823406305    -0.233348931
 C       -0.333309731     4.120194527    -0.229048063
 C       -1.691613319     4.349287632     0.004605683
 C       -2.527553024     3.248177670     0.234924609
 C       -2.017412375     1.952884581     0.231404279
 C       -2.274117054     5.687242925     0.018602043
 C       -1.586308696     6.823380622    -0.186783823
 C       -2.169623121     8.160943976    -0.172611248
 C       -1.336286192     9.262780730    -0.402352369
 C       -1.849045634    10.558557682    -0.398238369
 C       -3.208904442    10.782297138    -0.158351415
 C       -4.044209556     9.681925863     0.072590166
 C       -3.529293346     8.387131629     0.063472239
Si       -3.927946753    12.481845150    -0.144206516
 C       -5.193262693    12.635029527    -1.459701513
 C       -5.539980490    11.653781174    -2.303513672
 C       -6.551889640    11.783230443    -3.352272573
 C       -6.821475852    10.676058550    -4.170966389
 C       -7.768734656    10.743155101    -5.178267709
 C       -8.521206373    11.923109148    -5.373833286
 C       -8.252025995    13.034829340    -4.552613643
 C       -7.267191381    12.962482732    -3.575689313
 N       -9.474721424    11.967630356    -6.400139926
 C      -10.260936778    10.749965485    -6.657025772
 C      -10.211961113    13.222777445    -6.591078819
 C      -10.917491716    10.107337298    -5.420711144
 C      -12.174193098    10.834177887    -4.910759255
 N      -13.356451189    10.802031992    -5.795550305
 C      -13.393244355    11.820528036    -6.781748018
 C      -13.466455901    13.153360110    -6.328269820
 C      -13.505589956    14.196738502    -7.238216209
 C      -13.506336845    13.950138660    -8.619828176
 C      -13.463829543    12.626002282    -9.062631731
 C      -13.421489950    11.567865980    -8.161096431
 C      -13.717708308     9.450700656    -6.249846441
 C      -13.548621444    15.089923861    -9.539515537
 C      -13.553279915    14.974648072   -10.873692114
Si      -13.605349940    16.366767028   -12.064737328
 C      -12.085376074    16.268885685   -13.105508228
 C      -10.941902082    15.624392217   -12.621239249
 C       -9.789596124    15.546598656   -13.402290304
 C       -9.751912600    16.116164165   -14.678180467
 C      -10.897426966    16.764952765   -15.158181962
 C      -12.051364919    16.842269815   -14.382091347
 C       -8.568526876    16.059200302   -15.530406955
 C       -7.409939346    15.469218462   -15.190472370
 C       -6.226069836    15.411688331   -16.041853684
 C       -6.187374145    15.978182161   -17.319080225
 C       -5.034230883    15.899666865   -18.098952974
 C       -3.888886004    15.258212928   -17.614378942
 C       -3.925158416    14.690139516   -16.335040564
 C       -5.080899893    14.763496528   -15.561164627
Si       -2.364331992    15.156897824   -18.650999150
 C       -2.208803147    16.693477754   -19.704626281
 C       -0.852040126    15.013973869   -17.561325829
 C       -2.498113402    13.648932103   -19.746235908
 C      -15.133158091    16.168598646   -13.120227054
 C      -13.635120906    18.020668901   -11.200560544
 C       -4.729937613    12.785325495     1.516196013
 C       -2.606814193    13.768341607    -0.446480495
 C       -0.626185916    -0.869276947    -1.530990134
 C       -0.607621765    -0.884088659     1.531055835
 H        1.251626821     2.707669510    -0.422394656
 H        0.338729435     4.957054913    -0.411144097
 H       -3.588929065     3.404636177     0.418771656
 H       -2.718020210     1.133932743     0.416770261
 H       -3.350001647     5.714927596     0.214714807
 H       -0.510341044     6.795230282    -0.382699788
 H       -0.275186980     9.108914845    -0.589150090
 H       -1.151317379    11.378693686    -0.588212776
 H       -5.115511718     9.796796391     0.266290443
 H       -4.198602491     7.548045197     0.244069743
 H       -5.666193946    13.627288507    -1.512312017
 H       -5.076731057    10.656154233    -2.273593300
 H       -6.265691729     9.748945350    -4.022451501
 H       -7.928007310     9.884001323    -5.823093880
 H       -8.806225292    13.959839575    -4.671684047
 H       -7.066109798    13.842403711    -2.963094544
 H      -10.862504113    13.146158275    -7.482469980
 H       -9.494557824    14.039949208    -6.790561822
 H      -10.845144334    13.501773151    -5.733329766
 H      -13.810059475     8.791657235    -5.368734437
 H      -13.000933162     8.996601893    -6.951546921
 H      -14.710465801     9.486914293    -6.733676910
 H      -13.503366811    13.354350716    -5.259185259
 H      -13.555672709    15.223024649    -6.873022994
 H      -13.467892114    12.408480354   -10.132008677
 H      -13.395635455    10.549793327    -8.538325412
 H      -13.576725386    16.059930487    -9.026251373
 H      -13.527768683    13.984919211   -11.359223201
 H      -10.911840281    15.160573229   -11.629311661
 H       -8.913371379    15.036441323   -13.005314809
 H      -10.888679413    17.214540845   -16.149363409
 H      -12.915089371    17.358624749   -14.809282471
 H       -8.682182298    16.544846781   -16.503934077
 H       -7.296540637    14.983409523   -14.216488622
 H       -7.063094557    16.487677752   -17.717184652
 H       -5.066021503    16.359752194   -19.090504248
 H       -3.061018339    14.177186032   -15.903756031
 H       -5.089666174    14.313580730   -14.569808478
 H      -11.033966861    10.977466476    -7.425993655
 H       -9.573778394    10.009652779    -7.134154054
 H      -11.157369282     9.052027944    -5.649625609
 H      -10.180489101    10.061477518    -4.590635156
 H      -12.493403135    10.373558882    -3.944519870
 H      -11.922643876    11.892886866    -4.677001460
 H        2.267005204    -1.028502163     0.066875760
 H        2.272292224     0.566450427     0.858699665
 H        2.276856534     0.451133352    -0.921920536
 H       -1.265848908    16.689833757   -20.279738448
 H       -2.214564830    17.606774433   -19.082273657
 H       -3.036983449    16.779157735   -20.429476840
 H       -0.795316003    15.852017776   -16.843183495
 H       -0.852901205    14.075150904   -16.980259756
 H        0.074957938    15.028823267   -18.161875421
 H       -3.386893273    13.704154448   -20.400141624
 H       -1.611400087    13.542710478   -20.395494149
 H       -2.587475223    12.724117267   -19.148222157
 H      -15.101638911    15.230098549   -13.703007351
 H      -16.046529936    16.141243429   -12.498226403
 H      -15.244364962    17.001566064   -13.836291810
 H      -12.743773963    18.157567236   -10.561335808
 H      -13.646174117    18.852438924   -11.928116163
 H      -14.528871299    18.126406172   -10.560270045
 H       -5.542682794    12.062583104     1.710155297
 H       -3.996548044    12.686967087     2.336768510
 H       -5.165157659    13.798222458     1.575895674
 H       -2.132997990    13.633054220    -1.435931101
 H       -3.029103102    14.788870266    -0.422167177
 H       -1.812323127    13.720158444     0.318845024
 H       -0.280934319    -0.361527381    -2.449840923
 H       -0.272101848    -1.914231364    -1.574254554
 H       -1.730168490    -0.888607948    -1.561148435
 H       -0.280974790    -0.362107396     2.448946736
 H       -1.709850990    -0.941844527     1.558596213
 H       -0.219214327    -1.916686568     1.579046667

