139   

Si        0.000000000     0.000000000     0.000000000
 C        1.869004048     0.000000000     0.000000000
 C       -0.662573014     1.722681872     0.000000000
 C        0.180094204     2.835972818    -0.063777022
 C       -0.348343746     4.127265714    -0.062181939
 C       -1.728614813     4.334087378     0.000096714
 C       -2.572238334     3.216383304     0.062684705
 C       -2.047979514     1.926986646     0.062897179
 C       -2.327638836     5.664655939     0.004349912
 C       -1.637010767     6.816233660    -0.049848365
 C       -2.239389423     8.145416844    -0.045409149
 C       -3.620653141     8.346030780     0.017030967
 C       -4.154910694     9.634788948     0.018951164
 C       -3.316972297    10.750875022    -0.047506626
 C       -1.930214787    10.553258257    -0.109785171
 C       -1.400083406     9.266517050    -0.105333602
Si       -3.989099963    12.471485045    -0.047098514
 C       -3.597358783    13.242873831     1.572045867
 C       -2.932094519    12.605157230     2.543991078
 C       -2.594176144    13.172338353     3.851023749
 C       -1.890190703    12.364935436     4.758541426
 C       -1.539033265    12.838973340     6.011485231
 C       -1.838321283    14.166678619     6.373513320
 C       -2.531872277    14.980713614     5.467580745
 C       -2.917032006    14.477500187     4.227814136
 N       -1.447807222    14.584448616     7.676553361
 C        0.008759339    14.555739700     7.921311220
 C       -2.085247607    15.816507052     8.170236886
 C        0.778946006    15.721555761     7.272975096
 C        2.142543275    15.299581194     6.696943448
 N        2.100363803    14.654464248     5.369050742
 C        1.330347126    15.295211518     4.380211871
 C        1.282290820    16.705720530     4.343544173
 C        0.530513883    17.355469654     3.378570247
 C       -0.139715437    16.638489299     2.379051420
 C       -0.059110676    15.242818198     2.393378181
 C        0.665408260    14.574763789     3.370751051
 C        2.010386503    13.186246943     5.425335471
 C       -0.919907525    17.374599408     1.384241699
 C       -1.596357455    16.786565722     0.390009748
Si       -2.590237082    17.640499926    -0.886268459
 C       -4.297830550    16.968465737    -0.666353812
 C       -4.753904412    16.676930890     0.626481696
 C       -6.034719028    16.169888746     0.824139987
 C       -6.888429136    15.939487745    -0.263097799
 C       -6.429532678    16.229921049    -1.550813557
 C       -5.146720610    16.739428867    -1.752312765
 C       -8.222036828    15.406891095    -0.004536866
 C       -9.136832603    15.142148869    -0.952423281
 C      -10.470230054    14.609554760    -0.692992331
 C      -10.928512316    14.319322557     0.595098629
 C      -12.211179857    13.811224286     0.797309875
 C      -13.062020377    13.572264090    -0.287300959
 C      -12.604267028    13.860762922    -1.579014103
 C      -11.325602823    14.375832460    -1.777561521
Si      -14.760589747    12.899389245    -0.019188368
 C      -14.779322387    11.794005200     1.488314138
 C      -15.927700719    14.336274190     0.234500088
 C      -15.298158408    11.902640068    -1.506530522
 C       -2.619790779    19.490256204    -0.654246192
 C       -1.909123991    17.207925918    -2.569397417
 C       -3.208891756    13.436962762    -1.439553785
 C       -5.842010820    12.452344270    -0.265805179
 C       -0.618353277    -0.875140272    -1.531274648
 C       -0.613070388    -0.879217130     1.531519257
 H        1.267759254     2.737548578    -0.115831755
 H        0.329706448     4.977382578    -0.111788321
 H       -3.650772610     3.355637671     0.111872223
 H       -2.755408381     1.094454376     0.113781853
 H       -3.420587139     5.673308859     0.056912993
 H       -0.544550655     6.808705522    -0.103456334
 H       -4.294888256     7.492946840     0.065701159
 H       -5.243490120     9.728877994     0.072318431
 H       -1.226951828    11.390514200    -0.162598812
 H       -0.321456433     9.131125596    -0.152877838
 H       -3.954209225    14.277023420     1.691231770
 H       -2.576707459    11.568812208     2.430956319
 H       -1.634745330    11.340714287     4.483837421
 H       -1.045567590    12.185306027     6.727076326
 H       -2.763621996    16.012199747     5.714883836
 H       -3.459872405    15.125332029     3.538257845
 H       -1.842558533    15.937313162     9.240088470
 H       -3.182344680    15.710321955     8.094714641
 H       -1.781837383    16.732512690     7.639924372
 H        2.639289674    12.797880175     6.242317709
 H        2.414875132    12.768380641     4.484300356
 H        0.981071375    12.811233066     5.562299804
 H        1.832957205    17.290602588     5.074095572
 H        0.480227237    18.444517169     3.388777673
 H       -0.583026016    14.656504749     1.634170556
 H        0.682752044    13.488804401     3.355725564
 H       -0.895812516    18.462029014     1.528208723
 H       -1.596887087    15.688489248     0.275469323
 H       -4.126537635    16.833895645     1.511402192
 H       -6.373673575    15.946536180     1.834702442
 H       -7.073168405    16.059208219    -2.411630595
 H       -4.841891506    16.947466836    -2.781132065
 H       -8.446411343    15.227921009     1.051504388
 H       -8.914039045    15.322124650    -2.008378728
 H      -10.284060518    14.490229918     1.455876298
 H      -12.513819475    13.606716661     1.828178053
 H      -13.223824094    13.693826975    -2.464466798
 H      -10.989217360    14.595865392    -2.789189595
 H        0.156314148    14.562607081     9.024971346
 H        0.405902256    13.579377304     7.567572235
 H        0.158231278    16.172328889     6.469464472
 H        0.927058446    16.531413721     8.009781584
 H        2.796576207    16.199925555     6.596379599
 H        2.670299006    14.627754614     7.408475514
 H        2.266458784    -1.030544907     0.024084580
 H        2.273894909     0.530358966     0.880359603
 H        2.274909389     0.488658036    -0.903609168
 H      -15.769731982    11.324909941     1.626836372
 H      -14.548029566    12.354351956     2.411061517
 H      -14.036886189    10.980482036     1.396812222
 H      -15.633904705    14.943916058     1.109329130
 H      -15.935707741    15.007116527    -0.643461692
 H      -16.963000879    13.990158377     0.400152883
 H      -14.580223540    11.091371993    -1.724940765
 H      -16.284944853    11.435507876    -1.338579660
 H      -15.380116364    12.528716502    -2.412156234
 H       -3.022351754    19.767842560     0.336841312
 H       -1.606851899    19.923199549    -0.738041531
 H       -3.254341245    19.980759403    -1.414190148
 H       -1.957123153    16.119965935    -2.758774627
 H       -2.465992654    17.714143091    -3.376819914
 H       -0.849722286    17.511053596    -2.658404578
 H       -2.154573517    13.689340496    -1.233438750
 H       -3.237868982    12.864094017    -2.383525302
 H       -3.758384814    14.381737450    -1.612745203
 H       -6.349019358    11.931244162     0.565438407
 H       -6.249463591    13.481834541    -0.301716947
 H       -6.133609245    11.953465347    -1.206558745
 H       -0.272805975    -0.366259230    -2.449547885
 H       -0.258349188    -1.918091526    -1.572412327
 H       -1.721978560    -0.900862717    -1.565124705
 H       -0.271531136    -0.366924551     2.449387191
 H       -1.716229700    -0.914999041     1.565301094
 H       -0.244092395    -1.919047888     1.573288961

