139   

Si        0.000000000     0.000000000     0.000000000
 C        1.869282972     0.000000000     0.000000000
 C       -0.652238854     1.726980695     0.000000000
 C        0.161082099     2.812192106    -0.340430561
 C       -0.348558827     4.110647639    -0.335074181
 C       -1.681998699     4.353217180     0.004733114
 C       -2.496954167     3.263948811     0.341508178
 C       -1.990825190     1.967009102     0.338218492
 C       -2.259555560     5.693154481     0.024388897
 C       -1.591088189     6.819887854    -0.274876435
 C       -2.171996856     8.158603229    -0.254177338
 C       -1.360696622     9.251175319    -0.588996932
 C       -1.871631830    10.546613675    -0.582974823
 C       -3.211255346    10.778610008    -0.247660263
 C       -4.023333143     9.690135922     0.086675722
 C       -3.506818218     8.394901790     0.085970795
Si       -3.893403744    12.493579654    -0.238149306
 C       -5.720109394    12.385455177    -0.316009210
 C       -6.568793048    12.862490680     0.604124051
 C       -8.025789377    12.757953545     0.508838749
 C       -8.814809071    13.295887470     1.535561051
 C      -10.197530336    13.222721346     1.492365279
 C      -10.845657723    12.552948208     0.431781226
 C      -10.053533120    12.010406646    -0.598710933
 C       -8.671194064    12.136097369    -0.563717626
 N      -12.249262389    12.483756483     0.396248575
 C      -12.954517537    12.432546944     1.689444536
 C      -12.846932211    11.593762829    -0.614504803
 C      -12.596970056    11.189728309     2.523836782
 C      -13.609455831    10.911245179     3.646617913
 N      -15.003449833    10.665837177     3.212095459
 C      -15.149180671     9.950989589     2.002749540
 C      -14.471526400     8.719563248     1.874300038
 C      -14.582482526     7.981331670     0.708626105
 C      -15.391299344     8.419248812    -0.351919814
 C      -16.079942327     9.625644809    -0.210133805
 C      -15.973425976    10.383197014     0.951326381
 C      -15.890852910    11.823379864     3.407008190
 C      -15.472785756     7.599351441    -1.562925360
 C      -16.210335048     7.916677727    -2.634819628
Si      -16.341308489     6.921947903    -4.168379521
 C      -18.109326833     6.450318988    -4.401395149
 C      -18.982748182     6.417211418    -3.307483926
 C      -20.317751029     6.061299685    -3.482173191
 C      -20.809739437     5.723100132    -4.749621001
 C      -19.933530054     5.752992502    -5.838512366
 C      -18.596946472     6.111924390    -5.667909020
 C      -22.216314172     5.357110908    -4.881356484
 C      -22.813532730     5.015889049    -6.035715460
 C      -24.220300056     4.650097894    -6.166001980
 C      -25.095671751     4.620437279    -5.076950649
 C      -26.433303568     4.264832493    -5.246883676
 C      -26.928112616     3.938842978    -6.513983449
 C      -26.053115489     3.968819572    -7.607342056
 C      -24.715951955     4.317001483    -7.433479620
Si      -28.698240827     3.467207832    -6.745380410
 C      -29.752274987     4.245333666    -5.411680377
 C      -29.300512957     4.058020251    -8.413743701
 C      -28.827765055     1.605804399    -6.647168971
 C      -15.760516568     7.982037936    -5.592990724
 C      -15.317324840     5.364215890    -4.072761495
 C       -3.315796015    13.355878027     1.313935130
 C       -3.303223036    13.426267173    -1.745750085
 C       -0.627489217    -0.866012630    -1.532294408
 C       -0.604712867    -0.890405627     1.528760547
 H        1.211786067     2.685634700    -0.615450397
 H        0.306653824     4.938431698    -0.600632027
 H       -3.538793147     3.430839442     0.609176677
 H       -2.674465877     1.157913459     0.610013528
 H       -3.315235010     5.731248850     0.309514663
 H       -0.535714020     6.782986982    -0.560164734
 H       -0.318498550     9.088362815    -0.856641648
 H       -1.191747912    11.359696298    -0.851244244
 H       -5.077243374     9.814084947     0.358284396
 H       -4.158157069     7.564397620     0.352407313
 H       -6.090669293    11.879496428    -1.222386771
 H       -6.230397314    13.374127824     1.514857198
 H       -8.335278265    13.793787594     2.378925222
 H      -10.778507149    13.684025295     2.285301661
 H      -10.510820978    11.495453157    -1.437854108
 H       -8.083200206    11.722233744    -1.384862489
 H      -13.946376664    11.577282404    -0.508122298
 H      -12.492386599    10.551720490    -0.550450521
 H      -12.625746952    11.990728373    -1.621574028
 H      -15.823164074    12.152605168     4.459227821
 H      -16.938760256    11.513520817     3.241459489
 H      -15.668814746    12.683952263     2.756983210
 H      -13.866151102     8.350734043     2.699186838
 H      -14.042527695     7.037699812     0.620984012
 H      -16.719039653     9.986262686    -1.018042385
 H      -16.523371797    11.316334100     1.022913684
 H      -14.865802133     6.685923415    -1.508783735
 H      -16.810173278     8.841166855    -2.660013372
 H      -18.652991660     6.669073009    -2.293903709
 H      -20.983766983     6.045000873    -2.621203526
 H      -20.290607229     5.494775885    -6.833752996
 H      -17.960150157     6.119234109    -6.556699029
 H      -22.783091459     5.376651299    -3.945657874
 H      -22.247445641     4.995976065    -6.971675410
 H      -24.737191670     4.875019533    -4.081012266
 H      -27.068326846     4.257883895    -4.356604830
 H      -26.382980609     3.724476376    -8.620854928
 H      -24.051222496     4.332308872    -8.295323296
 H      -12.732146126    13.364308070     2.255372541
 H      -14.048209572    12.461342434     1.478520949
 H      -12.517849582    10.306734250     1.857194465
 H      -11.585375397    11.307606083     2.959836449
 H      -13.288830913     9.999934158     4.208390333
 H      -13.597114969    11.744871672     4.382078973
 H        2.267147663    -1.028214637     0.070108229
 H        2.271238002     0.569452527     0.857367617
 H        2.277937690     0.448739406    -0.922493293
 H      -30.824100413     4.035851921    -5.577373910
 H      -29.628038259     5.343256176    -5.393199209
 H      -29.493109874     3.862482929    -4.409087218
 H      -29.154384997     5.147461615    -8.528379246
 H      -28.766078300     3.561284826    -9.242192225
 H      -30.377681162     3.852136674    -8.545321730
 H      -28.471492015     1.228922382    -5.671464914
 H      -29.870834629     1.267301089    -6.775611683
 H      -28.218942961     1.118152404    -7.429587424
 H      -16.409548465     8.866185032    -5.727871270
 H      -14.731826776     8.348567092    -5.423140824
 H      -15.760363054     7.421136528    -6.543894073
 H      -15.640620207     4.720669983    -3.234071581
 H      -15.409874029     4.766627231    -4.997660974
 H      -14.246284134     5.592517859    -3.929367003
 H       -3.652590313    12.819803015     2.220000200
 H       -2.213314193    13.410684766     1.356358448
 H       -3.703700850    14.388510725     1.369502616
 H       -3.566653214    12.893185917    -2.677192754
 H       -3.763052845    14.429988729    -1.797380231
 H       -2.207848967    13.561641160    -1.737944693
 H       -0.281951175    -0.357420377    -2.450531650
 H       -0.275321641    -1.911505793    -1.576972918
 H       -1.731626176    -0.883108738    -1.562100367
 H       -0.292702257    -0.361393204     2.447710818
 H       -1.705765492    -0.967745997     1.548795401
 H       -0.199135032    -1.916221362     1.581646657

