139   

Si        0.000000000     0.000000000     0.000000000
 C        1.869302367     0.000000000     0.000000000
 C       -0.644294459     1.730398944     0.000000000
 C        0.135386828     2.790717195    -0.473298141
 C       -0.360750699     4.094203652    -0.468946259
 C       -1.647456926     4.367140937     0.003099543
 C       -2.429083193     3.303081124     0.472479973
 C       -1.936195527     2.000794958     0.469517098
 C       -2.208873875     5.713900500     0.027037107
 C       -1.567756913     6.818120456    -0.392051100
 C       -2.130846942     8.164184434    -0.367343989
 C       -3.418661321     8.433419331     0.105692155
 C       -3.917642475     9.734830446     0.111484406
 C       -3.143732503    10.796337181    -0.372337523
 C       -1.855423204    10.529242580    -0.849346873
 C       -1.354556638     9.229223953    -0.841685141
Si       -3.823788726    12.512021426    -0.355502183
 C       -3.698518118    13.197427821     1.338107719
 C       -3.188358839    12.536199107     2.385797493
 C       -3.088450471    13.084335155     3.739055699
 C       -2.533236295    12.289515149     4.751873222
 C       -2.415367060    12.759951623     6.049814958
 C       -2.903449194    14.038567351     6.395455103
 C       -3.463378985    14.835827226     5.378524836
 C       -3.529315379    14.367789046     4.072571155
 N       -2.781827593    14.512869211     7.715019034
 C       -2.765504300    13.507268260     8.792345503
 C       -3.570420868    15.706571486     8.066830920
 C       -4.076924259    12.712139580     8.895440836
 C       -3.940165080    11.576397417     9.921980343
 N       -5.175614054    10.788542620    10.077267919
 C       -6.303091159    11.452366754    10.592779624
 C       -6.145917351    12.530542884    11.490323601
 C       -7.254049235    13.187474385    12.000714101
 C       -8.554992246    12.774265836    11.681851139
 C       -8.709232363    11.686098116    10.818185898
 C       -7.610056741    11.026049797    10.285581604
 C       -5.403675225     9.863841828     8.953275365
 C       -9.690972984    13.503596806    12.248388567
 C      -10.973241647    13.196817321    12.011998224
Si      -12.423266887    14.080888770    12.698815971
 C      -13.415120834    12.881899617    13.690548863
 C      -12.822338391    11.719894968    14.195525063
 C      -13.569913645    10.812487600    14.945177585
 C      -14.920998772    11.049573895    15.213031301
 C      -15.510838913    12.216783899    14.709630157
 C      -14.768150358    13.123603298    13.957543850
 C      -15.742096815    10.128696053    15.992531811
 C      -15.300827473     8.978762842    16.530042652
 C      -16.121350367     8.057562050    17.309560013
 C      -17.473418037     8.291775356    17.575209684
 C      -18.220295562     7.383935770    18.325070196
 C      -17.628122743     6.223318486    18.834607761
 C      -16.273305491     5.986665323    18.570342254
 C      -15.531668434     6.891156949    17.814319212
Si      -18.615220989     5.019865430    19.827775052
 C      -19.978256321     5.911019872    20.746009180
 C      -19.356502659     3.764062147    18.659485355
 C      -17.513737487     4.157496230    21.068077907
 C      -11.912348231    15.492236183    13.809235424
 C      -13.437149261    14.727159193    11.268561896
 C       -2.860822618    13.612266009    -1.519299353
 C       -5.619028264    12.484770606    -0.873495689
 C       -0.629801076    -0.860338249    -1.534314475
 C       -0.604172680    -0.896799835     1.525150691
 H        1.149212190     2.640161965    -0.854504515
 H        0.267764759     4.901887723    -0.840080448
 H       -3.434551599     3.493402753     0.843526102
 H       -2.592713776     1.212206619     0.847647483
 H       -3.227078823     5.777204214     0.422346583
 H       -0.550089065     6.754817888    -0.788513222
 H       -4.043638854     7.623769044     0.477871066
 H       -4.929037700     9.884032577     0.501487937
 H       -1.205505010    11.318702726    -1.237265289
 H       -0.348773106     9.041968703    -1.213107645
 H       -4.082139173    14.223678142     1.439632641
 H       -2.798406997    11.510607330     2.306175163
 H       -2.174673159    11.286694467     4.514183939
 H       -1.946765110    12.129011657     6.799288619
 H       -3.841760219    15.829352110     5.596541093
 H       -3.951262461    15.013768953     3.301261605
 H       -3.425925649    15.956204490     9.131269230
 H       -4.651105764    15.587449138     7.883466531
 H       -3.199893801    16.569458789     7.484122446
 H       -4.444850654     9.442223064     8.607619160
 H       -5.903030859    10.336524433     8.091162969
 H       -6.018028797     9.014355043     9.303022592
 H       -5.153858055    12.860194667    11.784377675
 H       -7.106680949    14.032359223    12.674388278
 H       -9.710503642    11.340625177    10.553991931
 H       -7.777694983    10.184027783     9.621452729
 H       -9.389648817    14.336795825    12.896928465
 H      -11.244236198    12.354581430    11.354675173
 H      -11.767416582    11.482865430    14.019652086
 H      -13.087455046     9.912851910    15.323522206
 H      -16.561739774    12.419625094    14.906707187
 H      -15.282055270    14.015354880    13.589012786
 H      -16.782848576    10.440423524    16.120615773
 H      -14.259791917     8.667273241    16.401878976
 H      -17.956979001     9.189922391    17.195060621
 H      -19.273823527     7.621276366    18.497077742
 H      -15.756691963     5.097607371    18.942463772
 H      -14.480450026     6.687898289    17.617788860
 H       -1.901373990    12.824648764     8.622823613
 H       -2.549039405    14.027454019     9.752884946
 H       -4.912852114    13.382185142     9.174506935
 H       -4.352304164    12.300128650     7.904492738
 H       -3.120116157    10.881851720     9.628253676
 H       -3.647155201    11.978235105    10.918534622
 H        2.267698747    -1.029067829     0.052009749
 H        2.270165280     0.554756397     0.867575992
 H        2.279063495     0.465499031    -0.913545879
 H      -20.550174705     5.214809402    21.384942912
 H      -20.694789374     6.387806343    20.054603530
 H      -19.568708967     6.701876570    21.400385520
 H      -20.017242468     4.246542720    17.916909677
 H      -18.572268959     3.223980837    18.099090385
 H      -19.956361772     3.013117357    19.202859135
 H      -16.993960694     4.886488250    21.716005714
 H      -18.098792232     3.488685634    21.724145763
 H      -16.742637469     3.541723767    20.573125370
 H      -11.306681977    15.133884753    14.661719200
 H      -11.313325421    16.240600449    13.260849696
 H      -12.792726715    16.011514570    14.228581903
 H      -13.824202931    13.901308297    10.644575732
 H      -14.303452767    15.315989520    11.616617650
 H      -12.831546458    15.380431901    10.614464563
 H       -1.814987571    13.738825892    -1.185817950
 H       -2.840773600    13.193928557    -2.541441862
 H       -3.308988056    14.619948015    -1.581416206
 H       -6.241223378    11.919540220    -0.156857975
 H       -6.035161710    13.505748540    -0.937228256
 H       -5.740008734    12.012530318    -1.865101786
 H       -0.283132825    -0.350919711    -2.451621634
 H       -0.281090963    -1.906937974    -1.581309810
 H       -1.734147289    -0.873916318    -1.563792016
 H       -0.307146297    -0.362839506     2.446077563
 H       -1.703951220    -0.992003872     1.536085400
 H       -0.183587661    -1.916513697     1.582298381

