139   

Si        0.000000000     0.000000000     0.000000000
 C        1.870105443     0.000000000     0.000000000
 C       -0.601131332     1.743466985     0.000000000
 C       -0.159366836     2.636965719    -0.982763681
 C       -0.604175379     3.958410866    -0.996936361
 C       -1.513415380     4.409322241    -0.037064456
 C       -1.959198399     3.511870297     0.943134988
 C       -1.508101393     2.195078493     0.964919601
 C       -2.019561325     5.774848137     0.007512277
 C       -1.700119272     6.770500459    -0.836853496
 C       -2.254643877     8.117431639    -0.722490131
 C       -3.163663658     8.454137309     0.287286922
 C       -3.682691505     9.741375958     0.382672079
 C       -3.315144315    10.726974881    -0.543363315
 C       -2.409732617    10.393983083    -1.555178594
 C       -1.882401736     9.104877634    -1.640962110
Si       -4.050680437    12.409107113    -0.343901317
 C       -3.678311213    13.011428557     1.350530127
 C       -2.984653031    12.315120862     2.261535261
 C       -2.676659673    12.774495791     3.615096961
 C       -1.938093203    11.930378645     4.458222531
 C       -1.614638396    12.308256454     5.750616829
 C       -1.966471910    13.589821961     6.229617603
 C       -2.699115544    14.443160183     5.377877624
 C       -3.060307863    14.025350385     4.103831105
 N       -1.644658211    13.980976705     7.532374106
 C       -0.577589007    13.279668412     8.260427439
 C       -1.798027084    15.401660772     7.875972262
 C        0.800075639    13.264738123     7.578217489
 C        1.438424643    14.661523880     7.496869356
 N        2.587634448    14.720628947     6.573288552
 C        2.331735476    14.353066732     5.234000925
 C        1.082671394    14.654936053     4.651131822
 C        0.814650972    14.301894146     3.339115431
 C        1.784972896    13.671508179     2.546406073
 C        3.029808271    13.396894300     3.116516802
 C        3.310353928    13.735487923     4.435009005
 C        3.824437131    14.195843200     7.176964690
 C        1.449052158    13.319911796     1.165948982
 C        2.291182734    12.716877660     0.315536686
Si        1.876877411    12.275225053    -1.410313249
 C        2.015847033    10.461909661    -1.716395218
 C        2.474916268     9.566612995    -0.745084898
 C        2.561602904     8.203659174    -1.026224527
 C        2.171847180     7.702317605    -2.273910852
 C        1.700503964     8.599305329    -3.238044116
 C        1.620219270     9.962294378    -2.963733772
 C        2.276762561     6.269022020    -2.532231391
 C        1.937409283     5.689227682    -3.696222851
 C        2.029185426     4.263519895    -3.988096590
 C        2.492192187     3.325772989    -3.062722784
 C        2.559644528     1.971578400    -3.394681107
 C        2.160310430     1.525939178    -4.657272330
 C        1.690747355     2.464870896    -5.586531967
 C        1.625251228     3.814242907    -5.253603979
Si        2.233745773    -0.255774525    -5.135924133
 C        2.925569880    -1.290896524    -3.742593938
 C        0.502607301    -0.835775795    -5.535396370
 C        3.332090225    -0.428451758    -6.637697976
 C        0.141589494    12.825127456    -1.808980926
 C        3.096056040    13.146784303    -2.530740790
 C       -3.382789905    13.627362039    -1.590674965
 C       -5.903830646    12.275347839    -0.548376249
 C       -0.639065869    -0.826921403    -1.549523683
 C       -0.611536163    -0.926863432     1.503267377
 H        0.537571197     2.333638583    -1.772049288
 H       -0.238862297     4.636512397    -1.768443001
 H       -2.667587635     3.844596200     1.699286963
 H       -1.888838082     1.543656855     1.755410287
 H       -2.727187469     5.957290095     0.824875408
 H       -0.994895623     6.618393736    -1.657265399
 H       -3.473665906     7.706222977     1.015714039
 H       -4.390626756     9.937554310     1.194959826
 H       -2.094438401    11.119241222    -2.309612961
 H       -1.164391070     8.870622428    -2.426576362
 H       -4.084042710    14.007357614     1.576943170
 H       -2.559670803    11.321019837     2.047893162
 H       -1.619877365    10.950590097     4.095750715
 H       -1.084932102    11.607198301     6.387657857
 H       -3.002356058    15.430276047     5.707961694
 H       -3.642118524    14.698231442     3.472753597
 H       -1.404201744    15.607857712     8.883990936
 H       -2.876761915    15.649900637     7.895408476
 H       -1.296424526    16.079668694     7.163673097
 H        3.922154950    14.566946553     8.210699011
 H        4.694392466    14.585885245     6.617545918
 H        3.874074326    13.095364114     7.195154620
 H        0.309787938    15.153339529     5.230891126
 H       -0.171730963    14.517502782     2.921792990
 H        3.803448843    12.907801342     2.523038316
 H        4.291015985    13.502769000     4.835956684
 H        0.417571186    13.588635396     0.894565140
 H        3.317139781    12.456692481     0.616382485
 H        2.773441514     9.901227603     0.253012497
 H        2.924290611     7.521876233    -0.258741576
 H        1.389993605     8.237358531    -4.216385326
 H        1.244614430    10.612579783    -3.758924782
 H        2.657237442     5.674770166    -1.696865590
 H        1.556950488     6.295086980    -4.525045352
 H        2.811322515     3.647268122    -2.072040485
 H        2.943804102     1.284854595    -2.634737635
 H        1.363025307     2.175699688    -6.588896968
 H        1.256507175     4.528011990    -5.987865658
 H       -0.492082204    13.720481005     9.279150740
 H       -0.920722920    12.227065105     8.418583909
 H        1.471649565    12.572004575     8.117192425
 H        0.707727937    12.844029625     6.552818099
 H        0.693979558    15.416484708     7.155057554
 H        1.769632830    15.000209209     8.502257029
 H        2.272217784    -1.027669050    -0.005146575
 H        2.267002619     0.508940216     0.896888682
 H        2.274766200     0.525422373    -0.883357311
 H        2.996229513    -2.353749210    -4.034793377
 H        2.286544226    -1.239519102    -2.842024198
 H        3.939533174    -0.960195970    -3.456130075
 H       -0.170507350    -0.726088785    -4.665028698
 H        0.062624100    -0.256479151    -6.366285151
 H        0.494112938    -1.899781579    -5.830120112
 H        4.357070136    -0.072830553    -6.427014628
 H        3.405764710    -1.480764917    -6.963765828
 H        2.949894844     0.158487307    -7.491377082
 H       -0.575248127    12.315332752    -1.134910765
 H        0.025548847    13.915171209    -1.671328441
 H       -0.140651094    12.586986834    -2.848343618
 H        4.131790329    12.820305771    -2.328971641
 H        2.885862290    12.941175588    -3.594339591
 H        3.059624708    14.241191545    -2.386197469
 H       -2.305489303    13.821455499    -1.438448720
 H       -3.517911099    13.260541848    -2.623376113
 H       -3.904288000    14.598134905    -1.514821979
 H       -6.340651809    11.574059835     0.185199237
 H       -6.398148751    13.252230794    -0.408967057
 H       -6.167599237    11.906516576    -1.555672883
 H       -0.420038236    -0.215197028    -2.443925915
 H       -0.185494682    -1.821352210    -1.699502186
 H       -1.734988433    -0.960702501    -1.507277725
 H       -0.270263837    -0.450001175     2.439179172
 H       -1.714655849    -0.971053862     1.532758881
 H       -0.240858190    -1.967256435     1.508629741

