139   

Si        0.000000000     0.000000000     0.000000000
 C        1.868812591     0.000000000     0.000000000
 C       -0.655277757     1.724336084     0.000000000
 C        0.193757955     2.833750601    -0.040755144
 C       -0.328700906     4.127277933    -0.039764167
 C       -1.709062083     4.338323960    -0.005149561
 C       -2.559166225     3.224675594     0.037029039
 C       -2.040445718     1.933470319     0.044350159
 C       -2.302491059     5.670106921    -0.002652364
 C       -1.607503833     6.819791948    -0.032612701
 C       -2.214219364     8.146579896    -0.029712210
 C       -3.598094045     8.334297675     0.005228645
 C       -4.142454066     9.618161849     0.006898664
 C       -3.311054592    10.739834751    -0.040691070
 C       -1.921443687    10.556127184    -0.076526226
 C       -1.381617420     9.273416596    -0.064727265
Si       -3.998519181    12.449356690    -0.039869971
 C       -3.384467301    13.324671588     1.447762136
 C       -2.571270598    12.769450873     2.355665626
 C       -2.074687849    13.459281229     3.547537219
 C       -1.226290587    12.762656504     4.422022419
 C       -0.729901719    13.371556693     5.563454164
 C       -1.074475307    14.703608328     5.855210190
 C       -1.925968352    15.401699413     4.990286915
 C       -2.424002628    14.776002687     3.852140139
 N       -0.525458675    15.267713395     7.050099160
 C        0.941089303    15.462086416     6.926606508
 C       -1.210592220    16.475474648     7.544798138
 C        1.357763352    16.233332524     5.659862843
 C        2.778957243    15.904861805     5.170803384
 N        2.990282390    14.631130189     4.475420251
 C        2.483675966    14.434763342     3.178224177
 C        1.597484793    15.321309890     2.541358637
 C        1.140958993    15.056469068     1.255771765
 C        1.609678898    13.955480786     0.528972885
 C        2.512111906    13.087702470     1.156217781
 C        2.932900127    13.306416102     2.457694739
 C        3.017201651    13.435731663     5.332737850
 C        1.102705800    13.711308061    -0.824233523
 C        1.493618620    12.684753564    -1.591881782
Si        0.912753675    12.307819365    -3.287185031
 C        0.132755199    10.636959215    -3.296082222
 C       -1.243449503    10.452297740    -3.449859151
 C       -1.790395956     9.168107719    -3.450473690
 C       -0.972957917     8.043972035    -3.310942984
 C        0.407801085     8.231489612    -3.158010456
 C        0.954227157     9.510595130    -3.145279930
 C       -1.490039939     6.680457066    -3.304717537
 C       -2.783871680     6.345066949    -3.440182241
 C       -3.278473298     4.972065785    -3.430851227
 C       -2.432507523     3.869684865    -3.277387418
 C       -2.943311892     2.572788852    -3.273695623
 C       -4.317160338     2.349436507    -3.417171165
 C       -5.167543730     3.451906411    -3.563064522
 C       -4.654081921     4.746895029    -3.565183192
Si       -4.983262106     0.628826464    -3.410974344
 C       -3.790209614    -0.505239117    -4.298461300
 C       -5.173925567     0.071224443    -1.636369125
 C       -6.641348003     0.568392090    -4.271875968
 C       -0.293947313    13.596042372    -3.900268826
 C        2.399161510    12.295215320    -4.423396722
 C       -3.392014943    13.359927831    -1.554465993
 C       -5.865623958    12.431247763    -0.011480188
 C       -0.625894656    -0.861551292    -1.537709302
 C       -0.622683341    -0.883997273     1.524152048
 H        1.281105461     2.730942236    -0.072853069
 H        0.352445546     4.975648166    -0.067376600
 H       -3.638507847     3.369074123     0.057340514
 H       -2.752415431     1.104300138     0.083832088
 H       -3.396640241     5.681105280     0.019768818
 H       -0.514831483     6.814396672    -0.065447696
 H       -4.265569624     7.474994262     0.031271680
 H       -5.231386176     9.702256692     0.042212364
 H       -1.221442579    11.398845087    -0.117256614
 H       -0.300437212     9.148036677    -0.099365273
 H       -3.737453201    14.361174297     1.547705212
 H       -2.206029932    11.733862608     2.275863229
 H       -0.950974222    11.730593873     4.200215268
 H       -0.090907582    12.820420817     6.249689279
 H       -2.201705902    16.431768506     5.194288543
 H       -3.087171813    15.332190728     3.189421003
 H       -0.852596391    16.682548627     8.568526987
 H       -2.294608668    16.278736489     7.616420749
 H       -1.052226077    17.374934336     6.931460819
 H        3.328474784    13.697038752     6.356691703
 H        3.768566266    12.724481672     4.942975930
 H        2.041738504    12.920275121     5.375821489
 H        1.240460009    16.209749429     3.051917455
 H        0.412597918    15.731536857     0.805125722
 H        2.889031238    12.216056601     0.619179991
 H        3.631478078    12.612893531     2.916675893
 H        0.361218345    14.451186767    -1.150524886
 H        2.238449494    11.959344038    -1.224034252
 H       -1.933262885    11.293112558    -3.561881013
 H       -2.867526523     9.049973558    -3.555471863
 H        1.060349990     7.367789550    -3.046676269
 H        2.036884233     9.593506978    -3.016364714
 H       -0.728118661     5.905115684    -3.173695297
 H       -3.551576620     7.113212285    -3.564807196
 H       -1.360103612     4.015534464    -3.152580335
 H       -2.229429270     1.753418389    -3.145412738
 H       -6.248293601     3.338415591    -3.678090794
 H       -5.331498940     5.591136719    -3.676261558
 H        1.310100852    15.977702688     7.837577195
 H        1.397193742    14.448273467     6.941125105
 H        0.637259222    16.026396040     4.840366458
 H        1.280943946    17.320494006     5.845521239
 H        3.114298258    16.712571701     4.473247221
 H        3.487943317    15.935486040     6.031314704
 H        2.267844296    -1.029947019     0.011503424
 H        2.272833852     0.518895746     0.887522614
 H        2.275481462     0.500750615    -0.896367970
 H       -4.184998072    -1.534286008    -4.359265963
 H       -2.813092601    -0.553479015    -3.785284489
 H       -3.605499102    -0.158654230    -5.331406780
 H       -4.198901722     0.041337796    -1.117603648
 H       -5.831375306     0.754568435    -1.069706478
 H       -5.614126559    -0.939406693    -1.579432349
 H       -6.573506274     0.969022015    -5.299460196
 H       -7.016536204    -0.467624824    -4.345090394
 H       -7.404266516     1.157501357    -3.733821500
 H       -1.189354660    13.663763125    -3.256545798
 H        0.173229668    14.596699143    -3.927806975
 H       -0.636843697    13.363439381    -4.924413460
 H        3.160257806    11.565005509    -4.099092703
 H        2.107315039    12.033544035    -5.456210058
 H        2.884216295    13.287218381    -4.454605053
 H       -2.296998384    13.509694850    -1.503681722
 H       -3.616911017    12.796505473    -2.477014644
 H       -3.861883920    14.353927655    -1.645031936
 H       -6.249865797    11.923242833     0.891820212
 H       -6.278721850    13.455234837    -0.011251947
 H       -6.278083024    11.908047286    -0.891969095
 H       -0.315321240    -0.324337537    -2.451959068
 H       -0.235682506    -1.891772952    -1.607215249
 H       -1.729099897    -0.921771573    -1.544620483
 H       -0.274535481    -0.382918546     2.445740049
 H       -1.726135549    -0.907207401     1.559716737
 H       -0.265301810    -1.927958622     1.558481849

