139   

Si        0.000000000     0.000000000     0.000000000
 C        1.869722310     0.000000000     0.000000000
 C       -0.641675122     1.730015125     0.000000000
 C        0.211864780     2.817227293    -0.208861332
 C       -0.284978705     4.120396597    -0.206619725
 C       -1.643967080     4.366253473     0.006211430
 C       -2.498523092     3.275047366     0.215406684
 C       -2.005509784     1.972857784     0.211574475
 C       -2.202404840     5.713758274     0.016031938
 C       -1.481818106     6.831663852    -0.174567132
 C       -2.025038502     8.185010699    -0.167665154
 C       -3.380151232     8.454828260     0.043022981
 C       -3.853619329     9.766456247     0.040813528
 C       -2.975998140    10.835903968    -0.163119027
 C       -1.618410378    10.568192184    -0.378926192
 C       -1.151398338     9.256813470    -0.389945752
Si       -3.588443157    12.576398659    -0.168583697
 C       -2.107755571    13.653756608    -0.088998137
 C       -1.746444277    14.566373357    -0.998581099
 C       -0.548863174    15.403389410    -0.885094637
 C       -0.275705486    16.326435465    -1.906039729
 C        0.841869463    17.142386247    -1.849968907
 C        1.697368305    17.085904306    -0.735209619
 C        1.428142225    16.174627935     0.292234645
 C        0.321309606    15.334708167     0.204415006
 N        2.828504721    17.958808936    -0.752505472
 C        2.446173383    19.377891498    -0.588299669
 C        3.941393205    17.562289622     0.127664191
 C        1.913933816    19.731518943     0.815080805
 C        1.047697180    21.005565704     0.794482454
 N       -0.404889905    20.761249854     0.901443081
 C       -0.999937334    20.070916887    -0.179851216
 C       -0.739836745    20.518223931    -1.491843049
 C       -1.304829788    19.867505192    -2.576728291
 C       -2.197743113    18.801110053    -2.397182253
 C       -2.482734650    18.385150904    -1.093567780
 C       -1.899933773    19.007528671     0.003513371
 C       -0.801692198    20.324749533     2.251448552
 C       -2.767306890    18.146861397    -3.577288406
 C       -3.627868285    17.121528326    -3.525095504
Si       -4.362763758    16.275905219    -4.974958512
 C       -3.866353535    14.498552297    -4.905083356
 C       -2.597751274    14.124673519    -4.448168301
 C       -2.227709572    12.780322530    -4.397379679
 C       -3.120091458    11.780912870    -4.795361315
 C       -4.388939117    12.158988912    -5.256813981
 C       -4.756424741    13.500356019    -5.318960219
 C       -2.793673117    10.360270928    -4.765809786
 C       -1.627767851     9.834313607    -4.353824800
 C       -1.341595546     8.402118490    -4.340496197
 C       -2.276638563     7.451926055    -4.763339356
 C       -1.974738087     6.092173245    -4.739094370
 C       -0.722524262     5.648774588    -4.296563015
 C        0.214820718     6.596761572    -3.871440657
 C       -0.093759670     7.956276888    -3.888801339
Si       -0.366091894     3.836958861    -4.281524702
 C       -0.282419898     3.250567287    -6.057228992
 C        1.272784819     3.487264296    -3.453319616
 C       -1.737269545     2.934101170    -3.397298874
 C       -6.219093130    16.448200899    -4.857914328
 C       -3.750364327    16.998672477    -6.583084274
 C       -4.652698908    12.896253193    -1.658159608
 C       -4.591683997    12.885924213     1.380723347
 C       -0.621701829    -0.849008133    -1.545158279
 C       -0.617919997    -0.891725246     1.521028503
 H        1.285148573     2.687940973    -0.374105921
 H        0.400218651     4.951013281    -0.369890271
 H       -3.560113527     3.445336214     0.383932197
 H       -2.718976193     1.161888252     0.380343280
 H       -3.279944856     5.765486167     0.192164585
 H       -0.404806156     6.774394276    -0.361595722
 H       -4.079628013     7.637604096     0.206947920
 H       -4.923851682     9.917200412     0.203134855
 H       -0.889287009    11.365523206    -0.557064490
 H       -0.095800287     9.065171953    -0.572182607
 H       -1.503693002    13.487602461     0.818424293
 H       -2.330376358    14.758986294    -1.909399904
 H       -0.945923980    16.400685229    -2.765612021
 H        1.059540070    17.835449183    -2.660875576
 H        2.074694212    16.114704746     1.161987023
 H        0.133686054    14.624412368     1.010041396
 H        4.817160406    18.190153832    -0.111806640
 H        4.219764459    16.516284099    -0.091348852
 H        3.732356055    17.653045974     1.203852231
 H       -0.362736841    21.007387748     2.998891083
 H       -0.495892045    19.295486951     2.499122322
 H       -1.899555069    20.404993287     2.350041592
 H       -0.092401885    21.375814315    -1.653836035
 H       -1.066328551    20.208182924    -3.584513333
 H       -3.165275924    17.549801824    -0.923172201
 H       -2.129963304    18.635886115     0.997450513
 H       -2.417375292    18.580994126    -4.523140376
 H       -3.966762960    16.711769286    -2.558929236
 H       -1.856192790    14.864158488    -4.127326207
 H       -1.235695389    12.513509680    -4.034919960
 H       -5.097112324    11.396235694    -5.574822784
 H       -5.757255618    13.731520302    -5.692618745
 H       -3.599325790     9.706361416    -5.115704458
 H       -0.818374668    10.473971473    -3.992124128
 H       -3.258103256     7.769051150    -5.111695718
 H       -2.751377973     5.399119806    -5.074613828
 H        1.205724346     6.307790771    -3.512792957
 H        0.646384740     8.677519363    -3.548139843
 H        3.334964969    19.998480989    -0.834517596
 H        1.674346411    19.611060097    -1.359468086
 H        1.323579996    18.879739089     1.209236828
 H        2.755794442    19.855701527     1.517718750
 H        1.335931388    21.675612475     1.636791390
 H        1.236555414    21.598450363    -0.128192013
 H        2.267494121    -1.029648745     0.045386185
 H        2.272744851     0.547494244     0.870787328
 H        2.277335244     0.470094146    -0.912259099
 H       -0.082840703     2.166534790    -6.112112962
 H        0.519584937     3.767560719    -6.613186151
 H       -1.230059250     3.444411602    -6.589691989
 H        2.115716070     3.907560640    -4.028431217
 H        1.306823091     3.917837167    -2.436703085
 H        1.442553684     2.399938319    -3.357860144
 H       -2.720093184     3.119242586    -3.862569612
 H       -1.565678233     1.843387517    -3.393732795
 H       -1.807840112     3.255948586    -2.338859694
 H       -6.619794742    15.932650612    -3.966861087
 H       -6.514966963    17.510804285    -4.785005074
 H       -6.724042808    16.026649548    -5.744312160
 H       -2.651813970    16.916695880    -6.672123779
 H       -4.188130486    16.472166528    -7.450305652
 H       -4.017544110    18.066253147    -6.674623335
 H       -4.091760903    12.736772186    -2.600905938
 H       -5.524592939    12.219245420    -1.685500502
 H       -5.032774805    13.933310192    -1.672983869
 H       -4.011328317    12.652473890     2.290712945
 H       -4.906214755    13.942475871     1.447747577
 H       -5.503076907    12.263879992     1.400456787
 H       -0.280860924    -0.321732817    -2.454953122
 H       -0.259642667    -1.890049972    -1.606835175
 H       -1.725410647    -0.876515800    -1.573801226
 H       -0.285387177    -0.383252401     2.444432560
 H       -1.720805793    -0.936675004     1.548437696
 H       -0.241984950    -1.929300081     1.559322342

