139   

Si        0.000000000     0.000000000     0.000000000
 C        1.869055407     0.000000000     0.000000000
 C       -0.660323391     1.723600839     0.000000000
 C        0.183644542     2.834130058     0.090991284
 C       -0.341307980     4.126791865     0.088860623
 C       -1.719217308     4.337922434    -0.004312590
 C       -2.564060050     3.223127984    -0.094639879
 C       -2.043406578     1.932206158    -0.091750095
 C       -2.314204451     5.670370703    -0.010379198
 C       -1.621072643     6.818908490     0.071026385
 C       -2.218684145     8.150354572     0.064743667
 C       -1.377163731     9.267290790     0.155939181
 C       -1.901926243    10.557160763     0.153745325
 C       -3.284803406    10.759434450     0.067071823
 C       -4.127257135     9.646685757    -0.023853197
 C       -3.597847416     8.356637864    -0.028074375
Si       -3.985252592    12.466664891     0.063777117
 C       -5.752781906    12.368138867     0.534929100
 C       -6.781361530    12.769569114    -0.223427110
 C       -8.185296273    12.678055436     0.180638492
 C       -9.176909267    13.131944538    -0.701001818
 C      -10.519546646    13.067930441    -0.367478114
 C      -10.919941903    12.584610056     0.898108030
 C       -9.924380559    12.128636911     1.784442948
 C       -8.586181851    12.157687330     1.413986689
 N      -12.281658817    12.523507743     1.226771962
 C      -13.187250373    13.507759773     0.610179141
 C      -12.627523387    12.165380336     2.609641239
 C      -12.823885687    14.981041362     0.860989949
 C      -13.272350112    15.514384103     2.232319528
 N      -14.702852570    15.852013434     2.342876337
 C      -15.238054739    16.732050323     1.388288598
 C      -14.439581938    17.782707540     0.884343497
 C      -14.949440535    18.660674218    -0.057347106
 C      -16.277874785    18.562958858    -0.497561644
 C      -17.074804499    17.541595829     0.024805333
 C      -16.574706198    16.640479398     0.956686904
 C      -15.554375033    14.738462547     2.784566536
 C      -16.763529821    19.517811457    -1.494627185
 C      -18.007876092    19.525297725    -1.990554992
Si      -18.630378605    20.713218962    -3.238195124
 C      -17.293909097    21.894778306    -3.709675114
 C      -16.734051740    22.726868958    -2.729772085
 C      -15.724809131    23.626379929    -3.060493551
 C      -15.246824752    23.716289824    -4.375190251
 C      -15.805772741    22.884877457    -5.348796798
 C      -16.818771969    21.983262854    -5.020962782
 C      -14.187466425    24.674898560    -4.672611718
 C      -13.643639829    24.861114653    -5.887319407
 C      -12.584254333    25.819603776    -6.185249148
 C      -12.024462921    26.651620406    -5.212431244
 C      -11.012785861    27.553937836    -5.542103308
 C      -10.537862578    27.642070045    -6.853770443
 C      -11.097380694    26.808474459    -7.831876904
 C      -12.107599756    25.909998238    -7.500357350
Si       -9.200553766    28.825149221    -7.322905100
 C       -8.580443554    29.755582982    -5.825096415
 C       -7.786522941    27.865160077    -8.079443803
 C       -9.887846252    30.039935067    -8.565652380
 C      -19.222163350    19.747636252    -4.724536198
 C      -20.056384618    21.675573089    -2.508850340
 C       -3.106793553    13.523971931     1.329607330
 C       -3.764525695    13.195365515    -1.641031833
 C       -0.612066913    -0.880163853    -1.531259992
 C       -0.620291679    -0.873790755     1.531300011
 H        1.269748820     2.732405783     0.165483441
 H        0.337841011     4.974609635     0.160099781
 H       -3.640777481     3.365622608    -0.167939468
 H       -2.751617262     1.101987721    -0.164172185
 H       -3.405499405     5.682989631    -0.088831255
 H       -0.530030257     6.807167855     0.149155130
 H       -0.300290478     9.128035552     0.228420122
 H       -1.197247558    11.389942743     0.225350655
 H       -5.215709832     9.747015142    -0.095594813
 H       -4.273773304     7.506562392    -0.102926752
 H       -5.917854953    11.938193290     1.535961992
 H       -6.647484437    13.203456375    -1.223414006
 H       -8.890097173    13.532617905    -1.674300854
 H      -11.262206627    13.394241381    -1.090117222
 H      -10.185842309    11.740419022     2.762955818
 H       -7.837526211    11.780471057     2.113123898
 H      -13.721876984    12.169282615     2.742773273
 H      -12.179942939    12.834452656     3.363221471
 H      -12.286766679    11.131363953     2.809017138
 H      -15.032033380    14.145218687     3.553365835
 H      -15.863145319    14.064327921     1.968897768
 H      -16.462911783    15.149288080     3.264863123
 H      -13.417836191    17.907403568     1.232233926
 H      -14.308277363    19.450968991    -0.451590254
 H      -18.111605971    17.442723468    -0.299945934
 H      -17.229355987    15.861427733     1.331906174
 H      -15.996002145    20.240804534    -1.808781116
 H      -18.757161532    18.788441153    -1.663223592
 H      -17.066957540    22.700670622    -1.687219594
 H      -15.303352955    24.266314034    -2.287395902
 H      -15.452996375    22.934296312    -6.377371822
 H      -17.215859611    21.358534386    -5.825617010
 H      -13.845577028    25.260106130    -3.813759785
 H      -13.985673605    24.276457927    -6.746386921
 H      -12.376017124    26.602620039    -4.183360900
 H      -10.614874320    28.179006279    -4.737958436
 H      -10.766052230    26.833842182    -8.873925339
 H      -12.530499370    25.271109485    -8.273481459
 H      -13.197891833    13.308586340    -0.489320510
 H      -14.225200821    13.300085611     0.951304662
 H      -11.727033173    15.117696033     0.761953084
 H      -13.264852302    15.604056334     0.055246158
 H      -13.012366533    14.788461521     3.033283571
 H      -12.695324134    16.439865435     2.476447973
 H        2.266509061    -1.030809059    -0.007125682
 H        2.275708829     0.503561359     0.894993525
 H        2.273256010     0.515675102    -0.889428194
 H       -7.770971812    30.455977910    -6.098658694
 H       -8.177072012    29.068134279    -5.060249945
 H       -9.384409550    30.349102186    -5.354511102
 H       -7.375249866    27.129623205    -7.364299858
 H       -8.107745652    27.307966030    -8.977036808
 H       -6.961349644    28.534623374    -8.379926929
 H      -10.737357959    30.606755879    -8.143000247
 H       -9.122354717    30.771153716    -8.879623492
 H      -10.253199755    29.528075272    -9.473483298
 H      -18.403241914    19.155556178    -5.172055760
 H      -20.025813568    19.041387044    -4.449735098
 H      -19.622221649    20.416109432    -5.507307043
 H      -19.747254925    22.234309448    -1.607062424
 H      -20.452808463    22.409623768    -3.233445298
 H      -20.887647233    21.009526294    -2.218424349
 H       -3.157871418    13.071643973     2.336483106
 H       -2.040500213    13.658700703     1.078396478
 H       -3.563449613    14.528281711     1.394202843
 H       -4.279108890    12.587420484    -2.407568554
 H       -4.169527485    14.221347994    -1.696837633
 H       -2.697293713    13.242004883    -1.922585585
 H       -0.273765041    -0.366042439    -2.449342080
 H       -0.238880069    -1.918487376    -1.574203006
 H       -1.715070410    -0.920474874    -1.563792134
 H       -0.273419228    -0.365811871     2.449536212
 H       -1.723946395    -0.896974311     1.565109854
 H       -0.262561607    -1.917530845     1.572250020

