139   

Si        0.000000000     0.000000000     0.000000000
 C        1.868764101     0.000000000     0.000000000
 C       -0.655411320     1.724783281     0.000000000
 C        0.181742510     2.828809504     0.185075294
 C       -0.338520326     4.123469431     0.180907930
 C       -1.706280435     4.339862648     0.000026268
 C       -2.544872409     3.231170913    -0.180012251
 C       -2.029004153     1.939141441    -0.179204146
 C       -2.303088834     5.669881758    -0.013024486
 C       -1.630000871     6.822300836     0.143107038
 C       -2.257015286     8.139972276     0.125148548
 C       -3.632743618     8.307193118    -0.059475690
 C       -4.199554939     9.579800751    -0.071367268
 C       -3.401315066    10.713524121     0.116187085
 C       -2.023972926    10.550086418     0.304104088
 C       -1.459014909     9.276632119     0.303947266
Si       -4.172649979    12.385254026     0.096497639
 C       -3.067586333    13.590383471     0.921626129
 C       -3.386880271    14.311580149     2.004096681
 C       -2.484009878    15.270051005     2.645944437
 C       -2.933072613    15.967642449     3.777162042
 C       -2.116588444    16.884463857     4.419425854
 C       -0.825103422    17.146916843     3.923463249
 C       -0.364102007    16.439028288     2.806136566
 C       -1.178672184    15.489253828     2.198994158
 N       -0.036715316    18.099760217     4.629636641
 C       -0.604150486    19.466756685     4.611609316
 C        1.403365557    18.084032357     4.316440968
 C       -0.724991684    20.103866260     3.213416644
 C       -2.149201097    19.964751671     2.637870539
 N       -2.243094609    20.125047288     1.169129770
 C       -1.697028018    18.992500808     0.478137860
 C       -2.556429573    17.894862831     0.309392394
 C       -2.106773878    16.759652316    -0.347981486
 C       -0.808661473    16.700392046    -0.877742858
 C        0.030689651    17.806319070    -0.720664457
 C       -0.404119971    18.947471667    -0.053616385
 C       -1.734749678    21.425379904     0.696967331
 C       -0.377028197    15.477883278    -1.565223340
 C        0.840446562    15.329542755    -2.101510687
Si        1.525225923    13.880133726    -2.983846370
 C        0.361916231    12.458923595    -3.135852540
 C        0.815649545    11.159021708    -2.884560182
 C       -0.047642140    10.070749438    -2.993885385
 C       -1.376955728    10.250557642    -3.386459424
 C       -1.827137169    11.551120742    -3.647204200
 C       -0.971971685    12.643948750    -3.519239628
 C       -2.308436156     9.134016977    -3.511391504
 C       -1.979437081     7.850906560    -3.284616463
 C       -2.889328473     6.717259416    -3.401972658
 C       -4.228896580     6.856099834    -3.771590342
 C       -5.059062869     5.738926970    -3.869642042
 C       -4.562884012     4.458238484    -3.609670251
 C       -3.217304072     4.315422617    -3.245038881
 C       -2.392706679     5.431906249    -3.144645503
Si       -5.630918582     2.958566804    -3.729368349
 C       -7.332499812     3.400090286    -4.362849561
 C       -4.826656029     1.739497098    -4.895766016
 C       -5.775734427     2.198939553    -2.026228944
 C        1.987859945    14.423443993    -4.711574525
 C        3.059225424    13.361787091    -2.045611943
 C       -4.389222788    12.948909239    -1.672314878
 C       -5.837526371    12.319353539     0.943819161
 C       -0.613851336    -0.871631846    -1.536586071
 C       -0.627753505    -0.874400293     1.527135430
 H        1.259004025     2.720179146     0.334374457
 H        0.333859885     4.966988182     0.325117458
 H       -3.614898804     3.384169836    -0.319045947
 H       -2.731375210     1.113441300    -0.322747788
 H       -3.387058529     5.678503568    -0.173253662
 H       -0.548659593     6.826395202     0.299667637
 H       -4.274234235     7.439707581    -0.207104277
 H       -5.279288968     9.645879157    -0.229132698
 H       -1.351906653    11.400968724     0.452565820
 H       -0.385738200     9.168351727     0.445689143
 H       -2.074659067    13.682366323     0.449698061
 H       -4.363314335    14.239708917     2.500314258
 H       -3.936678512    15.785984237     4.160944109
 H       -2.463800237    17.397310299     5.313301398
 H        0.625227667    16.623772343     2.397599557
 H       -0.789466209    14.932538368     1.343117470
 H        1.931090351    18.718647393     5.049164650
 H        1.656553117    18.437199245     3.304865968
 H        1.789827769    17.056552010     4.439989552
 H       -2.346810774    22.223195843     1.152167494
 H       -1.872048258    21.487771990    -0.396872327
 H       -0.678112962    21.623602062     0.927575550
 H       -3.569079532    17.942563311     0.708677208
 H       -2.780811847    15.908078873    -0.460751860
 H        1.043203777    17.786755660    -1.123641214
 H        0.266197207    19.794760492     0.054548631
 H       -1.144156581    14.693285925    -1.595810060
 H        1.578567804    16.150202257    -2.042159861
 H        1.845664988    10.948536003    -2.583666797
 H        0.326516578     9.072149728    -2.774205394
 H       -2.858906839    11.709211676    -3.956860601
 H       -1.379510423    13.635909029    -3.735482424
 H       -3.324395491     9.409912416    -3.803685379
 H       -0.961673877     7.583934671    -2.980848382
 H       -4.637474880     7.842601711    -3.981143864
 H       -6.099091172     5.909982983    -4.157836206
 H       -2.771780886     3.339691530    -3.025634686
 H       -1.351171870     5.301375224    -2.852264597
 H       -1.597916703    19.430546240     5.111614367
 H        0.037553649    20.101124201     5.263822754
 H       -0.442082756    21.169792002     3.261273658
 H        0.000159306    19.631990598     2.521593305
 H       -2.567871164    18.962084562     2.893774812
 H       -2.826588789    20.717037714     3.097209708
 H        2.266765071    -1.029875180    -0.038860393
 H        2.275598971     0.475896720     0.909879727
 H        2.272516427     0.543149352    -0.873024610
 H       -7.968576006     2.502114589    -4.457290495
 H       -7.281806180     3.873496381    -5.359688364
 H       -7.850665358     4.100639993    -3.684590745
 H       -4.704210338     2.173978167    -5.904477625
 H       -3.823673036     1.440344565    -4.542191908
 H       -5.431961973     0.822457155    -4.999982451
 H       -6.189470736     2.920211358    -1.298850441
 H       -6.442015927     1.318824478    -2.037374126
 H       -4.791902863     1.867042375    -1.648210555
 H        1.102733022    14.776491588    -5.271365259
 H        2.722980631    15.246529983    -4.696634798
 H        2.429419139    13.589427629    -5.286146152
 H        2.804068219    12.981730941    -1.039427841
 H        3.612279120    12.567770363    -2.576567846
 H        3.752691973    14.210694734    -1.911280659
 H       -3.410897896    13.069852942    -2.173684197
 H       -4.976982974    12.219612573    -2.255969158
 H       -4.913054291    13.919887637    -1.721738000
 H       -5.744695556    11.938725055     1.977412786
 H       -6.304667871    13.318548422     0.995197847
 H       -6.539365610    11.654972172     0.410723606
 H       -0.275668791    -0.352456096    -2.451754747
 H       -0.238396869    -1.908907484    -1.584733176
 H       -1.716648860    -0.915134706    -1.568264556
 H       -0.281040674    -0.370273500     2.447600358
 H       -1.731636736    -0.892613711     1.558585693
 H       -0.274713004    -1.919820939     1.566280953

