139   

Si        0.000000000     0.000000000     0.000000000
 C        1.869507728     0.000000000     0.000000000
 C       -0.621984330     1.738321970     0.000000000
 C        0.107597678     2.753620081    -0.628477507
 C       -0.360376677     4.066806010    -0.629566230
 C       -1.562510332     4.398112199     0.001507729
 C       -2.292567223     3.380041890     0.628370380
 C       -1.832050760     2.065559512     0.623892500
 C       -2.088125761     5.758236912     0.024207767
 C       -1.493440757     6.821696553    -0.543725663
 C       -2.031588548     8.177851092    -0.512899643
 C       -1.321356834     9.209062336    -1.141406492
 C       -1.804420787    10.516114093    -1.132429012
 C       -3.009304359    10.820879577    -0.488551710
 C       -3.719726155     9.791781144     0.139266445
 C       -3.236579174     8.485072202     0.124266241
Si       -3.677966192    12.543407620    -0.457891520
 C       -5.365958114    12.434812165     0.243891534
 C       -5.789519821    13.048404985     1.356082624
 C       -7.148912017    12.936709380     1.885841786
 C       -7.478203005    13.624971383     3.059051999
 C       -8.752323946    13.552715628     3.602957118
 C       -9.780263369    12.866816663     2.924611898
 C       -9.454485161    12.194878196     1.726219964
 C       -8.157659024    12.214539054     1.238020724
 N      -11.080285433    12.771470039     3.441085883
 C      -11.439052088    13.553807940     4.632852710
 C      -12.164442688    12.624954824     2.455678810
 C      -11.351045715    15.083729838     4.494575257
 C      -12.559013067    15.708764673     3.773319469
 N      -12.207371668    16.767006392     2.802216304
 C      -11.562132214    16.244534441     1.631923012
 C      -12.414426251    15.740010712     0.636682977
 C      -11.877596709    15.215243999    -0.528582538
 C      -10.488417372    15.148859212    -0.717157702
 C       -9.648433965    15.654815346     0.277631560
 C      -10.176564954    16.215869719     1.437263811
 C      -11.501654502    17.904505687     3.420070931
 C       -9.990344169    14.582086306    -1.973153352
 C       -8.698318371    14.450468415    -2.301475246
Si       -8.138720426    13.731567342    -3.892345820
 C       -7.088308132    12.227484851    -3.735320976
 C       -7.171983567    11.331261735    -2.665359415
 C       -6.341766038    10.210434285    -2.613653374
 C       -5.414935619     9.957275607    -3.631912055
 C       -5.341158944    10.853708033    -4.703964079
 C       -6.167961329    11.971428060    -4.759892375
 C       -4.551676292     8.779901752    -3.565277965
 C       -3.645373155     8.485353638    -4.513052330
 C       -2.747466294     7.338033972    -4.527309450
 C       -2.719249125     6.370735434    -3.521147650
 C       -1.833682624     5.294748468    -3.595270260
 C       -0.966156513     5.157709153    -4.683937287
 C       -0.993776813     6.127181365    -5.694336018
 C       -1.869702290     7.205204652    -5.612627800
Si        0.210623893     3.740145299    -4.796013972
 C        1.763081246     4.172315618    -3.847114380
 C       -0.583364147     2.213376038    -4.069972518
 C        0.650008108     3.400281413    -6.582214908
 C       -9.601509696    13.258492024    -4.957530643
 C       -7.157791628    15.086648969    -4.735471361
 C       -2.559684968    13.616686714     0.583169156
 C       -3.787263789    13.219275606    -2.192009096
 C       -0.635127158    -0.847825389    -1.539410331
 C       -0.609112917    -0.903799318     1.518147540
 H        1.061821943     2.557826742    -1.126959686
 H        0.229462934     4.844284533    -1.114178494
 H       -3.231924892     3.615103793     1.125047513
 H       -2.445993986     1.314302738     1.127635444
 H       -3.035756424     5.870674588     0.559094405
 H       -0.547030186     6.714944666    -1.082687399
 H       -0.386164338     8.987379875    -1.652414647
 H       -1.214186952    11.278680267    -1.646725144
 H       -4.664065490     9.971371289     0.664245872
 H       -3.808410617     7.703522700     0.620863685
 H       -6.044997707    11.804912117    -0.354545658
 H       -5.138266685    13.687514934     1.965905956
 H       -6.714915714    14.206318428     3.577441569
 H       -8.940720584    14.036812112     4.555234797
 H      -10.216072215    11.646668110     1.180202605
 H       -7.930283007    11.666989023     0.321764507
 H      -13.149699027    12.703813794     2.940907467
 H      -12.108833610    11.616541396     2.005541864
 H      -12.111948286    13.375814281     1.645824760
 H      -12.177515478    18.374071013     4.155519024
 H      -11.284994052    18.659055178     2.643537499
 H      -10.560641006    17.646879718     3.928251246
 H      -13.492270342    15.787626543     0.782621148
 H      -12.547092828    14.845203591    -1.304738382
 H       -8.565023151    15.609508362     0.153714873
 H       -9.503768365    16.611043070     2.193860042
 H      -10.804085668    14.259111949    -2.638577544
 H       -7.893601019    14.772693605    -1.622276012
 H       -7.884685825    11.480680940    -1.848831368
 H       -6.414444126     9.525368861    -1.770312980
 H       -4.631642044    10.683537313    -5.512411452
 H       -6.058283228    12.627810590    -5.628187240
 H       -4.677280110     8.149925714    -2.682102476
 H       -3.532392653     9.142766276    -5.383635586
 H       -3.384976435     6.455833440    -2.662861277
 H       -1.855964301     4.570124274    -2.773452606
 H       -0.340953764     6.074097084    -6.569220818
 H       -1.873815079     7.950430504    -6.405473692
 H      -12.464201780    13.255690251     4.949572006
 H      -10.763882002    13.217936536     5.458456887
 H      -11.238828811    15.534176426     5.497499663
 H      -10.421939600    15.348917225     3.947561475
 H      -13.142697704    14.934651234     3.228930713
 H      -13.259885755    16.159611872     4.510650747
 H        2.268563671    -1.027453186     0.070707809
 H        2.268909966     0.570464748     0.858143696
 H        2.279716892     0.450796362    -0.920685480
 H        2.502427220     3.354227653    -3.897944604
 H        1.548562957     4.365165007    -2.781254125
 H        2.240636282     5.080226879    -4.256646335
 H       -0.854063922     2.362369144    -3.006986804
 H       -1.511577422     1.951406994    -4.608965386
 H        0.092514436     1.342635437    -4.122998768
 H        1.207295005     4.238182350    -7.035060585
 H        1.280138705     2.498111266    -6.673207934
 H       -0.256281194     3.233842393    -7.191810837
 H      -10.218705443    12.480317393    -4.473843917
 H      -10.251220632    14.127035700    -5.163422695
 H       -9.270365120    12.853784000    -5.930786881
 H       -6.210432310    15.286100037    -4.203245952
 H       -6.909435291    14.826867946    -5.778299641
 H       -7.730566391    16.031564960    -4.758421578
 H       -2.471757747    13.225345777     1.612929091
 H       -1.540122892    13.661588310     0.161055881
 H       -2.939770380    14.651329963     0.647574464
 H       -4.401537439    12.557218598    -2.835883621
 H       -4.255806717    14.218974906    -2.207389899
 H       -2.792534510    13.303122648    -2.661180413
 H       -0.309691772    -0.319482869    -2.454192702
 H       -0.270190032    -1.887643859    -1.605291050
 H       -1.739420738    -0.880261790    -1.553582618
 H       -0.313364511    -0.376623638     2.443330194
 H       -1.709004413    -0.998691068     1.525543938
 H       -0.190099992    -1.924506627     1.570074400

