139   

Si        0.000000000     0.000000000     0.000000000
 C        1.869315133     0.000000000     0.000000000
 C       -0.627460124     1.736625524     0.000000000
 C        0.047569596     2.732464245     0.715010332
 C       -0.421582602     4.045420284     0.718625275
 C       -1.579139870     4.392407999     0.015986194
 C       -2.256122437     3.393411587    -0.695253395
 C       -1.787676389     2.081651949    -0.703573184
 C       -2.107334938     5.752592338    -0.008973688
 C       -1.553878667     6.800139942     0.625483480
 C       -2.083281084     8.159909265     0.599599611
 C       -1.404601854     9.160931448     1.307856079
 C       -1.871813975    10.472718157     1.312504059
 C       -3.036041059    10.812194447     0.612278235
 C       -3.715967685     9.815673338    -0.095128891
 C       -3.241407290     8.504378701    -0.102706921
Si       -3.657069598    12.548784757     0.616739626
 C       -5.427363774    12.529738719     0.141336082
 C       -5.953742166    13.153670267    -0.920187500
 C       -7.375994943    13.116535641    -1.270216766
 C       -7.809702581    13.812061001    -2.410032953
 C       -9.143374434    13.808118994    -2.783393194
 C      -10.095615422    13.124758078    -2.000531673
 C       -9.666095207    12.422951524    -0.865347433
 C       -8.317647614    12.405992617    -0.523054463
 N      -11.447879116    13.158387105    -2.437118062
 C      -12.035790140    14.517321214    -2.458802619
 C      -12.343548030    12.169423938    -1.811393423
 C      -12.018995064    15.241942962    -1.100909811
 C      -10.827958621    16.215177783    -0.981999948
 N      -10.386161985    16.440517802     0.406125971
 C      -11.360356363    16.899602969     1.310904881
 C      -12.324129913    17.836088590     0.876779279
 C      -13.292472477    18.301789674     1.750290266
 C      -13.316817871    17.894162272     3.092216266
 C      -12.343867877    16.990408441     3.527161744
 C      -11.373647424    16.502563921     2.661114099
 C       -9.459383422    15.403903421     0.888017452
 C      -14.362955109    18.417390481     3.972590583
 C      -14.483712122    18.098554802     5.267943475
Si      -15.776309063    18.730548138     6.401375080
 C      -14.957121800    19.629011369     7.789670792
 C      -13.609527222    19.993637388     7.710995838
 C      -12.997128458    20.672510215     8.764140760
 C      -13.718360672    21.007352773     9.913231999
 C      -15.070176816    20.644657185     9.987382723
 C      -15.684199009    19.964607005     8.938926836
 C      -13.119347020    21.716906697    11.039239027
 C      -11.838476786    22.119871745    11.094200622
 C      -11.237984667    22.829399768    12.219234282
 C      -11.956387835    23.163347629    13.370756946
 C      -11.341960548    23.842219944    14.422402451
 C       -9.994144081    24.209456772    14.342493768
 C       -9.272539898    23.876465451    13.189553085
 C       -9.886988425    23.192599908    12.143404095
Si       -9.183265084    25.108335226    15.736657742
 C      -10.422948311    26.225048911    16.580033398
 C       -8.537792460    23.844870334    16.952737062
 C       -7.768462441    26.148518953    15.095058669
 C      -16.938601858    19.906369081     5.533648798
 C      -16.726841293    17.266974206     7.069697128
 C       -3.531774550    13.274421026     2.333523069
 C       -2.633189315    13.552451212    -0.578308389
 C       -0.605448432    -0.907753682    -1.517948704
 C       -0.634455069    -0.851179257     1.537716872
 H        0.957080043     2.522208630     1.284765821
 H        0.124668711     4.802373094     1.278833473
 H       -3.159378027     3.641660720    -1.249777378
 H       -2.357115052     1.346384780    -1.278672006
 H       -3.019828601     5.877602023    -0.599713170
 H       -0.641317859     6.675742866     1.215855436
 H       -0.500504138     8.913115911     1.860967873
 H       -1.300191124    11.211242382     1.881163975
 H       -4.629644341    10.025486381    -0.661259579
 H       -3.786560184     7.746685087    -0.663011425
 H       -6.059438857    11.941658640     0.827229953
 H       -5.351177485    13.747617167    -1.619937641
 H       -7.085911685    14.355361941    -3.018401203
 H       -9.460850759    14.319323031    -3.690002391
 H      -10.376217819    11.884384988    -0.244429531
 H       -8.002213449    11.836631623     0.352911561
 H      -13.298715020    12.158253422    -2.365657012
 H      -12.562045659    12.359136544    -0.748942791
 H      -11.903188136    11.161719992    -1.911574097
 H       -8.719603816    15.167071424     0.100375154
 H       -9.956542789    14.462791048     1.172896850
 H       -8.890936804    15.793439239     1.751219490
 H      -12.310464507    18.196209217    -0.147949496
 H      -14.038998279    19.009501844     1.388783359
 H      -12.338259482    16.656988816     4.566273744
 H      -10.638314815    15.799992157     3.040686210
 H      -15.048273924    19.109330140     3.465362072
 H      -13.781599044    17.398246254     5.748730090
 H      -12.996250600    19.763090695     6.833211191
 H      -11.945726484    20.942250495     8.680680426
 H      -15.649405320    20.896501868    10.873636683
 H      -16.740475928    19.706831542     9.053337225
 H      -13.801154247    21.911190943    11.872336234
 H      -11.157314245    21.926055075    10.260100260
 H      -13.007611691    22.893680448    13.455755014
 H      -11.955839394    24.074587475    15.297034236
 H       -8.217580878    24.138258813    13.070134067
 H       -9.308484921    22.941892124    11.255997463
 H      -11.494452208    15.109580332    -3.230261972
 H      -13.080914636    14.427058731    -2.831917051
 H      -12.966099605    15.791747785    -0.946616306
 H      -11.983869521    14.504357704    -0.275777111
 H       -9.955617539    15.839087379    -1.565608679
 H      -11.085636555    17.200523835    -1.431346975
 H        2.268821361    -1.028125757    -0.058224396
 H        2.279589893     0.462422856     0.914717681
 H        2.268917974     0.560881901    -0.864432528
 H       -9.942995114    26.831107509    17.368926341
 H      -11.236383644    25.649437511    17.055160052
 H      -10.885721034    26.923998649    15.859825939
 H       -9.354569986    23.216454210    17.351000883
 H       -7.805104573    23.167911648    16.477550776
 H       -8.038596779    24.329001109    17.810289010
 H       -8.108399243    26.843520528    14.306006842
 H       -7.322027663    26.756220515    15.902276779
 H       -6.963197908    25.525849107    14.667681283
 H      -16.396731248    20.781986945     5.131317191
 H      -17.455991673    19.414193039     4.691276650
 H      -17.712467451    20.288436577     6.223128343
 H      -16.067204155    16.583023076     7.633869813
 H      -17.536599950    17.583915342     7.749501716
 H      -17.186675952    16.683973945     6.251429328
 H       -4.056171701    12.646277377     3.076216385
 H       -2.480836293    13.366251655     2.659568056
 H       -3.981815071    14.283067198     2.374497970
 H       -2.693593693    13.142110868    -1.603044415
 H       -2.970004666    14.603707561    -0.615572697
 H       -1.566653087    13.554439579    -0.289211487
 H       -0.316128931    -0.378163983    -2.443665250
 H       -0.177947998    -1.925001533    -1.570942639
 H       -1.704559653    -1.012278053    -1.521631097
 H       -0.288828816    -0.338350057     2.453258156
 H       -1.739104521    -0.861174138     1.564176324
 H       -0.289568832    -1.898739487     1.590138382

