139   

Si        0.000000000     0.000000000     0.000000000
 C        1.869015338     0.000000000     0.000000000
 C       -0.653335002     1.726136771     0.000000000
 C        0.193689173     2.824580851     0.173390966
 C       -0.317938520     4.121904913     0.170562901
 C       -1.687717953     4.349951391     0.013672237
 C       -2.535978810     3.247840006    -0.156612453
 C       -2.025883572     1.952421717    -0.169383504
 C       -2.262711454     5.691154304     0.005119960
 C       -1.547597293     6.819990887     0.144444134
 C       -2.103367336     8.168375011     0.138571329
 C       -3.468190688     8.425252213    -0.016387180
 C       -3.951395758     9.734046135    -0.015214335
 C       -3.071907617    10.812349925     0.112454620
 C       -1.701973762    10.558470860     0.262142494
 C       -1.226115873     9.251131716     0.283130558
Si       -3.664153897    12.559323875     0.119249931
 C       -2.247145973    13.573287773    -0.455324507
 C       -1.642416613    14.552700146     0.227944561
 C       -0.510112995    15.328508959    -0.289661759
 C        0.043613751    16.332509484     0.518031037
 C        1.115700611    17.092201394     0.070650400
 C        1.626402989    16.886241225    -1.218557816
 C        1.063077864    15.907656027    -2.042662569
 C       -0.002469184    15.142190936    -1.579258159
 N        2.739086943    17.724732889    -1.588066872
 C        4.023545370    16.992503080    -1.583455253
 C        2.485289733    18.480866172    -2.827993370
 C        4.373810694    16.234785272    -2.878080366
 C        5.506939658    15.215371365    -2.648705743
 N        5.065408599    13.820693419    -2.433086931
 C        4.285752852    13.656695667    -1.246931579
 C        4.972896383    13.725000426    -0.022140761
 C        4.280087110    13.574652865     1.169399544
 C        2.892282549    13.371363692     1.174924401
 C        2.221880677    13.287101379    -0.047387675
 C        2.909634828    13.401506605    -1.250620870
 C        4.485597640    13.212195741    -3.643812062
 C        2.201185175    13.217514764     2.457742875
 C        0.881906418    13.019855204     2.570241891
Si       -0.039949713    12.820488398     4.139009482
 C       -0.827521828    11.154263622     4.053275013
 C       -0.039567012    10.021437588     3.818881786
 C       -0.621498927     8.756484219     3.751669111
 C       -2.003119752     8.597863389     3.895813407
 C       -2.789586690     9.734103020     4.124168710
 C       -2.209236826    10.997463635     4.206369585
 C       -2.661745236     7.298162075     3.833832239
 C       -2.039515271     6.126038467     3.622439021
 C       -2.719325507     4.835633933     3.564212087
 C       -4.101654348     4.709667493     3.726779097
 C       -4.716484223     3.459949401     3.664820556
 C       -3.958483699     2.303123039     3.458186665
 C       -2.571996043     2.425573588     3.301072336
 C       -1.962099935     3.676756076     3.350088765
Si       -4.765126420     0.645735491     3.375032418
 C       -6.445676645     0.695758645     4.193086623
 C       -4.958812268     0.161210175     1.579977654
 C       -3.694633073    -0.610487322     4.254245854
 C        1.084036288    12.882108345     5.628788072
 C       -1.302847933    14.191548301     4.261809231
 C       -5.057979223    12.782402085    -1.104563966
 C       -4.250171648    13.019394394     1.827014856
 C       -0.617735410    -0.885200807    -1.525786015
 C       -0.623101338    -0.868026565     1.534377585
 H        1.272164114     2.710215485     0.309173135
 H        0.364410831     4.960639434     0.296784810
 H       -3.607147126     3.403214884    -0.274068398
 H       -2.735250541     1.133168218    -0.315604302
 H       -3.348487948     5.726639603    -0.117114994
 H       -0.461754002     6.777263477     0.275050951
 H       -4.168570849     7.599736898    -0.127177734
 H       -5.029259149     9.874262906    -0.124917092
 H       -0.967413772    11.363322636     0.376173203
 H       -0.160113356     9.072799893     0.416489456
 H       -1.908746363    13.296835192    -1.468920063
 H       -1.952972475    14.855787758     1.235829135
 H       -0.352867817    16.504159076     1.518147514
 H        1.566050385    17.855031306     0.705602152
 H        1.445244102    15.751217672    -3.047199673
 H       -0.436919238    14.386968685    -2.234475815
 H        3.328758348    19.169304598    -3.003074979
 H        1.578777742    19.095322095    -2.682522091
 H        2.340506346    17.863801827    -3.726407115
 H        5.260483863    13.193247853    -4.429786709
 H        3.599723327    13.728782494    -4.042860819
 H        4.214402618    12.163560648    -3.428235099
 H        6.049243372    13.884072250    -0.019938738
 H        4.823454896    13.620850480     2.112677725
 H        1.141016380    13.126845673    -0.069980223
 H        2.361384029    13.326275401    -2.185437880
 H        2.871822819    13.280130919     3.323378174
 H        0.235249455    12.972231459     1.675565337
 H        1.043990272    10.087100429     3.680716190
 H        0.010029913     7.887368078     3.576875433
 H       -3.867409164     9.632427375     4.233046456
 H       -2.872768600    11.844238291     4.400499278
 H       -3.747020862     7.333072043     3.969884916
 H       -0.957122581     6.083885528     3.475693502
 H       -4.714267940     5.593377732     3.895893992
 H       -5.801626450     3.428191562     3.791058106
 H       -1.928094918     1.558189437     3.128731727
 H       -0.884741524     3.751470509     3.209951494
 H        4.811903489    17.749007378    -1.364468191
 H        4.016108307    16.286319310    -0.719375167
 H        3.476185684    15.718986326    -3.265871300
 H        4.669642905    16.952454507    -3.663667155
 H        6.196402073    15.211073405    -3.522940645
 H        6.128417858    15.512009559    -1.773657345
 H        2.267886896    -1.029292700    -0.038212510
 H        2.277741004     0.477629009     0.907939735
 H        2.272034382     0.541224111    -0.874748142
 H       -6.907460297    -0.307022778     4.218737848
 H       -7.141802209     1.364835403     3.658058546
 H       -6.373318105     1.053141970     5.236042027
 H       -5.553998520     0.908356961     1.025258776
 H       -3.977703855     0.078974273     1.078806273
 H       -5.468168488    -0.812897064     1.480426660
 H       -3.518591035    -0.316101134     5.304878739
 H       -4.169715574    -1.606768295     4.263648113
 H       -2.707210658    -0.716999694     3.770633175
 H        1.851798736    12.088592184     5.590356569
 H        1.607197194    13.851708087     5.702053629
 H        0.514671017    12.739974109     6.564949208
 H       -2.000966166    14.187046569     3.405889688
 H       -1.901750605    14.105466306     5.185250518
 H       -0.808214275    15.179847169     4.279854058
 H       -4.762471800    12.455697227    -2.117837249
 H       -5.948610786    12.198005589    -0.814849559
 H       -5.364308176    13.841561349    -1.174667565
 H       -3.494983799    12.761296325     2.592447491
 H       -4.465415269    14.099021993     1.907293173
 H       -5.175364379    12.474787084     2.088876465
 H       -0.278947563    -0.375859711    -2.446350200
 H       -0.246606088    -1.924193650    -1.566265885
 H       -1.720650884    -0.923751088    -1.558009844
 H       -0.330643099    -0.324042201     2.450518970
 H       -1.724930918    -0.949143027     1.529874693
 H       -0.215001651    -1.891040488     1.609466835

