139   

Si        0.000000000     0.000000000     0.000000000
 C        1.865185995     0.000000000     0.000000000
 C       -0.581599059     1.751447486     0.000000000
 C       -0.333967806     2.550779229    -1.122395741
 C       -0.759827017     3.876513922    -1.153841683
 C       -1.429355165     4.439688614    -0.062668891
 C       -1.669178152     3.641404985     1.061808019
 C       -1.249547430     2.312602651     1.093790950
 C       -1.888068580     5.825433205    -0.064846251
 C       -1.711458761     6.668397321    -1.096168757
 C       -2.153228073     8.056721559    -1.138582620
 C       -2.826247774     8.677861798    -0.082982585
 C       -3.225400542    10.010565710    -0.180024323
 C       -2.962043525    10.751778897    -1.337465211
 C       -2.296730118    10.126476987    -2.399405084
 C       -1.905807261     8.793658304    -2.303682369
Si       -3.480548761    12.518117946    -1.490008659
 C       -3.105577655    13.453527519     0.040760399
 C       -2.531770671    12.951851444     1.142332198
 C       -2.243025762    13.721151051     2.352543481
 C       -1.638213581    13.070084195     3.435140634
 C       -1.341182638    13.748389601     4.607497634
 C       -1.516034175    15.144637654     4.689940806
 C       -2.090597054    15.808357772     3.583103004
 C       -2.468084432    15.097864947     2.453383272
 N       -1.230385063    15.874202512     5.850613524
 C       -0.607996312    15.223758827     7.010376398
 C       -0.869025486    17.289048269     5.669037483
 C        0.743761696    14.524353010     6.785713562
 C        1.999914490    15.411336436     6.827047234
 N        2.663150758    15.703673834     5.535596604
 C        2.582470078    14.752149046     4.503855850
 C        2.674523420    13.378113831     4.817492951
 C        2.597277984    12.425083707     3.814929861
 C        2.562071668    12.796063817     2.463501789
 C        2.518290735    14.157612617     2.152264113
 C        2.509551683    15.125423879     3.148890034
 C        2.588501791    17.117709589     5.138741277
 C        2.480279999    11.748772652     1.444329624
 C        2.440652622    11.983676716     0.126075843
Si        2.338346133    10.682327642    -1.158298883
 C        2.299675875     9.024809041    -0.349120885
 C        3.395030257     8.158623441    -0.342490003
 C        3.310738571     6.914785909     0.285357404
 C        2.130793851     6.508560473     0.913888424
 C        1.032577742     7.378809931     0.904327889
 C        1.113993636     8.620877521     0.282739096
 C        1.994450702     5.218559749     1.583015394
 C        2.967127396     4.295327103     1.664584028
 C        2.839492877     3.003947909     2.331138991
 C        1.665711347     2.589973939     2.965372673
 C        1.593254415     1.343951671     3.589696747
 C        2.701349029     0.491977944     3.609320861
 C        3.882594278     0.907067009     2.978626171
 C        3.947513137     2.144915671     2.345663578
Si        2.651492590    -1.164608834     4.423009731
 C        0.984832947    -1.465264726     5.215229031
 C        2.963580095    -2.475608142     3.127616966
 C        3.979659344    -1.230264607     5.735971864
 C        0.788291594    10.956643188    -2.152540506
 C        3.831204084    10.828020147    -2.275348314
 C       -2.571782345    13.346657767    -2.898606842
 C       -5.322312866    12.568287972    -1.796589183
 C       -0.635745341    -0.851502749    -1.539542106
 C       -0.648960630    -0.905311199     1.500814097
 H        0.194089023     2.171170326    -2.001930758
 H       -0.554286599     4.476997364    -2.038688693
 H       -2.190740116     4.058408117     1.920427920
 H       -1.465695077     1.735321580     1.996302225
 H       -2.404829872     6.145899064     0.842552877
 H       -1.190362817     6.333115768    -1.999936056
 H       -3.043740840     8.121683483     0.826670980
 H       -3.762424879    10.438743780     0.672399697
 H       -2.068563963    10.650053693    -3.332454686
 H       -1.393773223     8.324265809    -3.142058576
 H       -3.412898587    14.509686609    -0.007336609
 H       -2.196499998    11.906376292     1.214713061
 H       -1.420283820    12.002002820     3.371837897
 H       -0.965814731    13.181572219     5.453391222
 H       -2.269973823    16.877875536     3.617575662
 H       -2.935610999    15.632090376     1.625316650
 H       -0.234155544    17.656063273     6.489695771
 H       -1.798109551    17.890834719     5.668028030
 H       -0.333693909    17.474741602     4.721314432
 H        2.736042223    17.764709691     6.018867010
 H        1.639268879    17.393178499     4.651951646
 H        3.420241006    17.338514819     4.442412610
 H        2.807137673    13.064635183     5.849014485
 H        2.607836583    11.367691359     4.083663886
 H        2.470347762    14.475423735     1.109535280
 H        2.431086985    16.167967828     2.860549908
 H        2.452682487    10.734180464     1.867571233
 H        2.468979526    13.008196914    -0.274570581
 H        4.342530638     8.420440445    -0.819711667
 H        4.178459398     6.258438257     0.278002616
 H        0.100035321     7.077774836     1.379420738
 H        0.218453975     9.252829689     0.303236406
 H        1.009227066     5.031575717     2.022065624
 H        3.946369956     4.480313965     1.213265606
 H        0.787202555     3.234450917     2.960937157
 H        0.646203549     1.074082228     4.064140337
 H        4.780915546     0.284007927     2.961064844
 H        4.871979236     2.448777013     1.858222331
 H       -0.523475275    15.971911561     7.830065745
 H       -1.344402402    14.462440470     7.375643336
 H        0.850722348    13.728952962     7.550809618
 H        0.697623841    13.977116333     5.818929296
 H        1.770969349    16.364679473     7.349073382
 H        2.778912489    14.901813051     7.448883436
 H        2.274759937    -1.022447009     0.059960161
 H        2.259254009     0.567488617     0.868046610
 H        2.272367454     0.476094715    -0.908853695
 H        0.959008929    -2.445189399     5.724397591
 H        0.172056201    -1.461662948     4.467065470
 H        0.751640110    -0.695122339     5.971704012
 H        2.196731217    -2.439803972     2.331943421
 H        3.946894003    -2.341487846     2.643676982
 H        2.942378373    -3.488142190     3.566630277
 H        3.816354578    -0.457677646     6.509181850
 H        3.996297230    -2.210632779     6.243360665
 H        4.983103540    -1.059286332     5.307750869
 H       -0.099200792    10.983561460    -1.490144673
 H        0.820150198    11.912758699    -2.702539589
 H        0.629784207    10.147652094    -2.887204945
 H        4.772727230    10.754168478    -1.702257813
 H        3.838029436    10.030340942    -3.038620816
 H        3.844667248    11.796304224    -2.805377268
 H       -1.476582439    13.272919833    -2.763316615
 H       -2.824592684    12.894097144    -3.872637714
 H       -2.824214321    14.420277554    -2.958383139
 H       -5.880755470    12.109948714    -0.960142260
 H       -5.686109159    13.604323647    -1.910552178
 H       -5.590788462    12.015667313    -2.714520948
 H       -0.264425437    -0.363144621    -2.457380639
 H       -0.317761623    -1.908150493    -1.572632711
 H       -1.739530505    -0.833873577    -1.579740965
 H       -0.360227050    -0.388241201     2.433147273
 H       -1.750510816    -0.977266729     1.482426072
 H       -0.248538086    -1.933048837     1.552369799

