139   

Si        0.000000000     0.000000000     0.000000000
 C        1.869181195     0.000000000     0.000000000
 C       -0.656221981     1.725250257     0.000000000
 C        0.168858587     2.821488591     0.268591077
 C       -0.347913834     4.117264135     0.263421254
 C       -1.699925815     4.345810530    -0.004783884
 C       -2.526471554     3.245446368    -0.270022822
 C       -2.013353518     1.951333119    -0.266834897
 C       -2.286001917     5.682104934    -0.021381521
 C       -1.608602476     6.818737254     0.213783749
 C       -2.198685806     8.153521998     0.196215000
 C       -1.377052918     9.257884687     0.459357119
 C       -1.896136247    10.550209658     0.453419439
 C       -3.254239783    10.766804777     0.190513757
 C       -4.076953144     9.666609557    -0.072173045
 C       -3.552342067     8.374692003    -0.072096177
Si       -3.950457271    12.475930669     0.180658400
 C       -5.760635150    12.358051313     0.435790033
 C       -6.697218953    12.793312928    -0.417227944
 C       -8.137695716    12.682874508    -0.181185589
 C       -9.025073646    13.175610618    -1.148860967
 C      -10.396661353    13.095541938    -0.973905122
 C      -10.935898455    12.554636664     0.214507829
 C      -10.045111955    12.059420795     1.187059916
 C       -8.673702389    12.106353831     0.973459034
 N      -12.325491986    12.477658818     0.382657161
 C      -13.162120192    13.488481664    -0.285406806
 C      -12.825046417    12.047910811     1.696229461
 C      -12.838347130    14.949386087     0.070479667
 C      -13.423535743    15.415086066     1.414650671
 N      -14.868716955    15.704069782     1.411011818
 C      -15.351939313    16.595580590     0.440387568
 C      -14.553422638    17.689995048     0.040270838
 C      -15.012965302    18.580200891    -0.915869133
 C      -16.291921314    18.449108344    -1.476421717
 C      -17.091743458    17.383166912    -1.056544307
 C      -16.641907289    16.471757914    -0.109659699
 C      -15.718379394    14.554886100     1.753585686
 C      -16.728293165    19.417804306    -2.483694580
 C      -17.925449493    19.388754165    -3.083809275
Si      -18.513886146    20.577439394    -4.347417770
 C      -20.031279526    21.401269144    -3.696356525
 C      -20.221919739    21.534778726    -2.315396567
 C      -21.365239534    22.155655362    -1.818753097
 C      -22.339979702    22.663804543    -2.687559364
 C      -22.143808266    22.532319326    -4.065308767
 C      -21.001744773    21.908359675    -4.566183222
 C      -23.520966046    23.306040532    -2.119362735
 C      -24.527423417    23.830092026    -2.839276701
 C      -25.708387312    24.472313991    -2.271184877
 C      -25.906262486    24.604697718    -0.894064695
 C      -27.050569615    25.225998963    -0.394638710
 C      -28.028864363    25.720995420    -1.263275705
 C      -27.833633706    25.588288106    -2.643938284
 C      -26.686216967    24.974649425    -3.139996274
Si      -29.546344781    26.544691441    -0.608845434
 C      -29.936234799    25.909405841     1.105710408
 C      -29.234761349    28.385902191    -0.544730194
 C      -30.998132622    26.185326028    -1.730703239
 C      -17.237397262    21.889275069    -4.715010637
 C      -18.909268831    19.619518780    -5.902216590
 C       -3.230151281    13.472271725     1.587909564
 C       -3.531355437    13.279323798    -1.451647772
 C       -0.605565643    -0.887129303    -1.530266829
 C       -0.626090288    -0.868597746     1.531613630
 H        1.234295198     2.705811299     0.485676458
 H        0.316483007     4.953815929     0.472689074
 H       -3.582907345     3.401359736    -0.481392388
 H       -2.706554080     1.132994576    -0.480761817
 H       -3.356487436     5.708407935    -0.246548261
 H       -0.538461880     6.794007675     0.438736993
 H       -0.320171723     9.107003362     0.670626528
 H       -1.207615549    11.372962823     0.663663656
 H       -5.145639228     9.778403225    -0.285166707
 H       -4.212232436     7.534681809    -0.282093397
 H       -6.038772494    11.882937701     1.390609239
 H       -6.451730945    13.272123236    -1.374467858
 H       -8.631521335    13.620066727    -2.064065532
 H      -11.054095538    13.453512255    -1.761153560
 H      -10.414101199    11.626739352     2.110797592
 H       -8.007444769    11.698137511     1.735801421
 H      -13.927482734    12.039962863     1.701171347
 H      -12.474659628    12.679741535     2.529174706
 H      -12.499085795    11.006557388     1.881869128
 H      -15.239309576    13.952524023     2.543236692
 H      -15.944150382    13.897948996     0.897622019
 H      -16.672624108    14.926408539     2.173763268
 H      -13.571869314    17.839744117     0.481492700
 H      -14.371445909    19.406348613    -1.225165277
 H      -18.092421118    17.257863503    -1.474339528
 H      -17.297615003    15.659187442     0.184556694
 H      -15.972203295    20.182989994    -2.704015632
 H      -18.663627625    18.606901865    -2.841400479
 H      -19.493422127    21.156531957    -1.590101140
 H      -21.499332147    22.247048623    -0.742346624
 H      -22.885944728    22.917945256    -4.761794132
 H      -20.904512452    21.832609529    -5.652518437
 H      -23.542074405    23.338718221    -1.025971316
 H      -24.506433174    23.797751795    -3.932591905
 H      -25.162991465    24.222833196    -0.196285333
 H      -27.147291195    25.302229934     0.691940257
 H      -28.563659619    25.955305323    -3.370629428
 H      -26.551555580    24.883373092    -4.216271088
 H      -13.048418596    13.340084705    -1.387223676
 H      -14.230696309    13.265092090    -0.072779400
 H      -11.738352364    15.095213671     0.087370085
 H      -13.204266319    15.607805802    -0.744456335
 H      -13.209049069    14.666684854     2.208529103
 H      -12.901922010    16.347996245     1.741366493
 H        2.267014525    -1.029267275    -0.052754381
 H        2.277526101     0.464164257     0.915071822
 H        2.271370770     0.554686697    -0.866820159
 H      -30.881077432    26.338259154     1.484595448
 H      -29.143440681    26.168620887     1.829070226
 H      -30.046195801    24.809834416     1.109341570
 H      -28.381742380    28.626509635     0.115172036
 H      -28.999298073    28.789260632    -1.546010647
 H      -30.116388392    28.930478022    -0.163560173
 H      -31.153109839    25.097225030    -1.846410787
 H      -31.932329143    26.612114473    -1.324365744
 H      -30.852483123    26.610230250    -2.739128176
 H      -16.981301719    22.466907944    -3.807995966
 H      -16.304869744    21.446107923    -5.107060220
 H      -17.607148831    22.608556861    -5.467790357
 H      -19.732621757    18.901950119    -5.734309328
 H      -19.211833608    20.288017059    -6.726853808
 H      -18.032263482    19.042358051    -6.247396922
 H       -3.386952420    12.968369830     2.558727468
 H       -2.144120030    13.625660114     1.463797950
 H       -3.702147701    14.469463472     1.651490119
 H       -3.951683478    12.708593838    -2.299910006
 H       -3.927890440    14.308514082    -1.508477671
 H       -2.438375341    13.333884220    -1.603120622
 H       -0.284629201    -0.362307853    -2.448543950
 H       -0.209711958    -1.916810372    -1.579976907
 H       -1.707317317    -0.953199587    -1.555338795
 H       -0.278433131    -0.361649339     2.450012463
 H       -1.730102081    -0.885110436     1.563294462
 H       -0.274450381    -1.914330606     1.574055386

