139   

Si        0.000000000     0.000000000     0.000000000
 C        1.871439278     0.000000000     0.000000000
 C       -0.624158463     1.736591829     0.000000000
 C        0.073601121     2.729462135    -0.696814868
 C       -0.386673492     4.044524747    -0.704994453
 C       -1.561031075     4.396601094    -0.032491934
 C       -2.262985504     3.400043134     0.655627111
 C       -1.802185360     2.085051677     0.670737235
 C       -2.071073399     5.764460363    -0.020916482
 C       -1.469050133     6.791330374    -0.644419732
 C       -1.946146386     8.168421048    -0.656122802
 C       -3.111815824     8.575040296    -0.001789668
 C       -3.521774965     9.907112964    -0.046192642
 C       -2.767144015    10.865253327    -0.734124672
 C       -1.598335839    10.459382980    -1.388075103
 C       -1.197154133     9.126444106    -1.352606144
Si       -3.313996732    12.625121045    -0.789515390
 C       -3.866156553    13.225816971     0.849476558
 C       -3.891086567    12.516462324     1.984703086
 C       -4.344304669    13.050427702     3.271056501
 C       -4.324853483    12.209208680     4.394982558
 C       -4.743421460    12.667753985     5.632841627
 C       -5.226080891    13.983564056     5.772509348
 C       -5.248033587    14.826765279     4.653865772
 C       -4.796523333    14.362250691     3.422596621
 N       -5.641164270    14.394022953     7.072493801
 C       -6.794337749    13.610280231     7.572111495
 C       -5.832358614    15.843922224     7.252962843
 C       -8.025363322    13.646337795     6.642277036
 C       -8.618119636    12.237147868     6.462836542
 N       -9.555945558    12.054161935     5.338300128
 C       -8.935841474    11.602634772     4.117959553
 C       -7.857048592    12.225061735     3.482885903
 C       -7.345099017    11.690778928     2.304704010
 C       -7.889766110    10.528422263     1.745239638
 C       -8.968198883     9.912852379     2.391999071
 C       -9.490888080    10.440566353     3.565151269
 C      -10.446070382    13.204824898     5.095284112
 C       -7.321409991     9.995597066     0.500434129
 C       -7.779533867     8.891701197    -0.102355986
Si       -7.184051018     8.103721553    -1.647202147
 C       -6.644283248     6.393748992    -1.202746377
 C       -6.492722229     6.014347957     0.136378323
 C       -6.085348523     4.723060852     0.462945680
 C       -5.806304622     3.785075559    -0.539024266
 C       -5.946867568     4.170825313    -1.875388489
 C       -6.356222043     5.462025498    -2.205680599
 C       -5.382596849     2.444219730    -0.148784354
 C       -5.087824782     1.455939943    -1.010207643
 C       -4.663992937     0.114550837    -0.622726870
 C       -4.521551423    -0.277363499     0.710878686
 C       -4.113370032    -1.571676756     1.033864671
 C       -3.847725762    -2.506358059     0.028662692
 C       -3.993533914    -2.117096040    -1.309694087
 C       -4.395610667    -0.822929525    -1.629277612
Si       -3.305926842    -4.226846628     0.424684564
 C       -2.936556778    -4.394166189     2.249501984
 C       -4.675460401    -5.404819171    -0.050282675
 C       -1.756974141    -4.616697458    -0.546331114
 C       -8.641969443     8.010928059    -2.815065788
 C       -5.787071865     9.004139430    -2.481990049
 C       -1.928946251    13.734077245    -1.372653384
 C       -4.768057717    12.746512903    -1.959665604
 C       -0.634180472    -0.851194116    -1.534617104
 C       -0.589729057    -0.893615292     1.531315954
 H        0.994228780     2.515790582    -1.246300174
 H        0.178924321     4.798808057    -1.248983526
 H       -3.185381637     3.651869586     1.176547193
 H       -2.396332149     1.346615201     1.217135157
 H       -3.004596883     5.907807746     0.530599419
 H       -0.540040498     6.630734622    -1.201108427
 H       -3.713894901     7.848473527     0.543295279
 H       -4.449939638    10.162002929     0.478137528
 H       -0.966353500    11.160135983    -1.939932035
 H       -0.287198022     8.828937204    -1.870240065
 H       -4.198997609    14.276987028     0.831502404
 H       -3.552225147    11.472380750     2.045968045
 H       -3.969217282    11.182484086     4.295813039
 H       -4.696792463    12.016418852     6.503144975
 H       -5.615044370    15.845498814     4.732234368
 H       -4.811302085    15.038189396     2.566911364
 H       -5.946203783    16.050778217     8.331642392
 H       -6.706007761    16.256473323     6.725938487
 H       -4.926050229    16.378514513     6.918408252
 H      -10.961844943    13.466226864     6.033442017
 H      -11.216894011    12.902004450     4.363877178
 H       -9.937723259    14.099417230     4.704941639
 H       -7.407240184    13.120892271     3.907599404
 H       -6.501339380    12.187108463     1.819470266
 H       -9.410409242     9.007023166     1.977726483
 H      -10.329308370     9.960027706     4.068309330
 H       -6.490838615    10.591954219     0.104462453
 H       -8.629951766     8.333571609     0.331360243
 H       -6.687785662     6.707049547     0.961422575
 H       -5.981731142     4.444024821     1.509581066
 H       -5.727978763     3.463412077    -2.673224625
 H       -6.441050280     5.707165137    -3.267923978
 H       -5.322536923     2.278757084     0.930710513
 H       -5.145852737     1.622968135    -2.089963975
 H       -4.732547546     0.427582988     1.513174950
 H       -4.021079094    -1.819947602     2.094842638
 H       -3.801984533    -2.805274186    -2.137761303
 H       -4.501326202    -0.537983892    -2.674742076
 H       -6.440573963    12.564610068     7.723204514
 H       -7.059588558    13.985016690     8.583845100
 H       -8.788662180    14.334539991     7.044046859
 H       -7.748286700    14.062613089     5.654321861
 H       -7.800708365    11.487079729     6.357766715
 H       -9.187467335    11.954911253     7.380345615
 H        2.269701694    -1.026868457     0.076535737
 H        2.270157640     0.576365405     0.853987932
 H        2.281149164     0.445683590    -0.922763940
 H       -2.558470367    -5.404427727     2.487860909
 H       -3.838303761    -4.227760006     2.864755779
 H       -2.168289486    -3.668876309     2.573515281
 H       -5.606104513    -5.182130377     0.502616963
 H       -4.910419617    -5.339717484    -1.127599978
 H       -4.400861604    -6.451672586     0.168613973
 H       -0.937288203    -3.922608573    -0.283379699
 H       -1.403095875    -5.642366318    -0.341581948
 H       -1.925200482    -4.533427917    -1.634210428
 H       -9.475808392     7.434116570    -2.376929953
 H       -9.025700308     9.018695933    -3.054961972
 H       -8.366796691     7.523816427    -3.766688950
 H       -4.853861453     8.960917432    -1.886319928
 H       -5.553606890     8.557760472    -3.465605670
 H       -6.026239029    10.069452916    -2.648493400
 H       -1.042462768    13.644353611    -0.717891117
 H       -1.612832020    13.486431606    -2.401022076
 H       -2.233210391    14.795838046    -1.368507733
 H       -5.628915193    12.154078043    -1.598378894
 H       -5.108779789    13.790489651    -2.072804876
 H       -4.503491727    12.370891195    -2.964056146
 H       -0.300659208    -0.335502584    -2.451728025
 H       -0.291341967    -1.898396261    -1.590232907
 H       -1.742105568    -0.861897579    -1.546173834
 H       -0.247826987    -0.384401750     2.449463709
 H       -1.693766726    -0.941897813     1.564796839
 H       -0.211177353    -1.930069514     1.561078747

