139   

Si        0.000000000     0.000000000     0.000000000
 C        1.868880601     0.000000000     0.000000000
 C       -0.658990009     1.723526458     0.000000000
 C        0.176581460     2.830253246    -0.175104696
 C       -0.347365888     4.123449276    -0.171001702
 C       -1.715228889     4.337381427     0.012847831
 C       -2.552254311     3.225749120     0.184670955
 C       -2.033974881     1.934547432     0.172785659
 C       -2.314802672     5.666011306     0.025823019
 C       -1.647025794     6.821591610    -0.132919535
 C       -2.284867105     8.134394310    -0.113606678
 C       -3.662393079     8.277727122     0.075489848
 C       -4.248627602     9.539271008     0.090231044
 C       -3.477342981    10.688719925    -0.124168759
 C       -2.101308849    10.549516365    -0.326197973
 C       -1.512098764     9.284996553    -0.313405176
Si       -4.359002354    12.302554126    -0.082323023
 C       -3.442571589    13.726570725    -0.778568859
 C       -3.894628024    14.443528107    -1.815948956
 C       -3.199288297    15.587803385    -2.406295941
 C       -3.804595780    16.238864731    -3.494801720
 C       -3.199067905    17.326488266    -4.097566895
 C       -1.985849808    17.829768007    -3.586037114
 C       -1.378939197    17.186235958    -2.499680426
 C       -1.974415747    16.060629330    -1.935788828
 N       -1.423770747    18.949560482    -4.258613165
 C       -2.256031012    20.168923219    -4.183160555
 C        0.004462309    19.197790471    -4.006302661
 C       -2.218386732    20.946031140    -2.850705748
 C       -3.037577386    20.276351364    -1.728287213
 N       -4.481966318    20.345358761    -2.013177589
 C       -5.317902964    19.300061316    -1.586381296
 C       -4.816257938    18.089607789    -1.069374603
 C       -5.676847145    17.083095155    -0.659276967
 C       -7.067198618    17.228598268    -0.755294353
 C       -7.565870762    18.420859020    -1.289911883
 C       -6.717588850    19.433881437    -1.714716017
 C       -5.041629865    21.702921717    -1.879436270
 C       -7.928259601    16.132618171    -0.306900123
 C       -9.267418670    16.157795813    -0.350155322
Si      -10.385840908    14.813138913     0.198475919
 C       -9.411044023    13.381383125     0.835161695
 C       -9.474211571    12.129802283     0.214938487
 C       -8.732657403    11.054957577     0.705454010
 C       -7.932012824    11.199848772     1.841326027
 C       -7.878576177    12.452697706     2.468169651
 C       -8.606138719    13.531166362     1.972365392
 C       -7.140389352    10.103075588     2.388482055
 C       -7.100643964     8.856739098     1.886335629
 C       -6.304437654     7.766871975     2.442552377
 C       -5.496329656     7.930703204     3.571698415
 C       -4.749972492     6.866531326     4.074179045
 C       -4.785463355     5.613231227     3.451103204
 C       -5.587081560     5.449108839     2.315741667
 C       -6.334711441     6.514162431     1.816823641
Si       -3.782786654     4.224896371     4.145129344
 C       -3.990527567     4.183688520     6.002856933
 C       -4.333920158     2.584966899     3.436373230
 C       -1.995614753     4.524101573     3.698957451
 C      -11.480620592    15.453697568     1.570804611
 C      -11.439945897    14.303588683    -1.258320888
 C       -5.976302912    12.123375940    -1.001908975
 C       -4.662351281    12.718372441     1.717023377
 C       -0.625016492    -0.876656718    -1.527129427
 C       -0.611439129    -0.872497273     1.537041260
 H        1.255086794     2.724842117    -0.319671773
 H        0.323289350     4.969002114    -0.312434122
 H       -3.623537572     3.373717276     0.312969399
 H       -2.735487631     1.106451733     0.305620990
 H       -3.398653889     5.671697426     0.190280472
 H       -0.566223522     6.832323494    -0.290940585
 H       -4.290782539     7.401454746     0.238449384
 H       -5.329185689     9.582293887     0.268317987
 H       -1.454985289    11.412456774    -0.503114863
 H       -0.438813447     9.194659807    -0.466389639
 H       -2.489685347    13.963941822    -0.285452636
 H       -4.845046987    14.219997228    -2.324012915
 H       -4.761878871    15.880131058    -3.875949040
 H       -3.659691861    17.804979575    -4.959940193
 H       -0.440556947    17.549975039    -2.094181696
 H       -1.478460412    15.558862239    -1.104888129
 H        0.356112735    19.981698815    -4.698870743
 H        0.574022857    18.279565281    -4.237043645
 H        0.243760318    19.509175446    -2.978058066
 H       -4.251167496    22.468828124    -1.904439608
 H       -5.610736550    21.838928379    -0.944013643
 H       -5.713794690    21.896819435    -2.735388770
 H       -3.743543055    17.924436957    -0.983025392
 H       -5.253907176    16.158402545    -0.257563543
 H       -8.642805456    18.561091816    -1.388046567
 H       -7.144656591    20.330938474    -2.150492258
 H       -7.364605398    15.268104260     0.074184011
 H       -9.804947010    17.036724839    -0.739276442
 H      -10.090674803    11.951443207    -0.670425782
 H       -8.794676044    10.093466445     0.198830547
 H       -7.264711204    12.586480969     3.357384783
 H       -8.520955967    14.486224104     2.499905717
 H       -6.556077792    10.360743338     3.277765197
 H       -7.691318082     8.590116530     1.005154004
 H       -5.443195592     8.896829279     4.070563997
 H       -4.138187398     7.057148093     4.960750306
 H       -5.654728126     4.493134525     1.790065410
 H       -6.953867679     6.365205169     0.934277237
 H       -1.923044485    20.836252314    -5.010315381
 H       -3.314073203    19.893107005    -4.409564149
 H       -1.175064013    21.066939932    -2.506274652
 H       -2.593830234    21.970650988    -3.035107336
 H       -2.715529065    19.211122513    -1.646093860
 H       -2.797572950    20.752051116    -0.751440574
 H        2.266638671    -1.029798568     0.041984908
 H        2.272789171     0.545960048     0.871328917
 H        2.275646252     0.473050726    -0.911401320
 H       -3.430417027     3.342711501     6.448361156
 H       -5.051817867     4.062615784     6.284423835
 H       -3.625701582     5.111695104     6.476479338
 H       -5.418590716     2.429360015     3.568780271
 H       -4.108134096     2.511460692     2.357479883
 H       -3.814315357     1.746642342     3.934418986
 H       -1.627654284     5.482871994     4.104730538
 H       -1.341381562     3.721166645     4.080493972
 H       -1.860024014     4.562569502     2.599165820
 H      -10.884554912    15.809821436     2.430216673
 H      -12.105526780    16.297100666     1.228474923
 H      -12.158410987    14.663924020     1.941509964
 H      -10.819148731    13.954726581    -2.103341404
 H      -12.135339317    13.489061722    -0.989736525
 H      -12.048030125    15.149301873    -1.626344075
 H       -5.808764026    11.904659370    -2.071275541
 H       -6.587756492    11.300905442    -0.588641495
 H       -6.587685626    13.042234671    -0.932447754
 H       -3.719542519    12.952820585     2.240165950
 H       -5.333213584    13.590357946     1.817145345
 H       -5.131973260    11.867374932     2.241490269
 H       -0.280610559    -0.371366057    -2.447785758
 H       -0.268364307    -1.920829113    -1.566558333
 H       -1.728806260    -0.898743714    -1.557803798
 H       -0.279619173    -0.347793975     2.451453765
 H       -1.713928449    -0.922208009     1.566111897
 H       -0.229899367    -1.907264130     1.589626419

