139   

Si        0.000000000     0.000000000     0.000000000
 C        1.869131184     0.000000000     0.000000000
 C       -0.655005889     1.725961688     0.000000000
 C        0.156429551     2.814138164     0.335299615
 C       -0.357148421     4.111143067     0.329449665
 C       -1.692200957     4.349050033    -0.007125161
 C       -2.505135396     3.256832820    -0.339209798
 C       -1.995341501     1.961388108    -0.334488204
 C       -2.274253265     5.686997724    -0.027290466
 C       -1.609110720     6.816642516     0.268399989
 C       -2.194702565     8.153127095     0.247127613
 C       -3.531458766     8.383826414    -0.090647018
 C       -4.051457208     9.677514136    -0.098573128
 C       -3.242445599    10.769193006     0.232199908
 C       -1.903148646    10.542092031     0.572619006
 C       -1.387537069     9.248556837     0.580852722
Si       -3.920900615    12.485838277     0.224806437
 C       -2.508277926    13.622918237    -0.015498340
 C       -2.121134432    14.585675084     0.830904191
 C       -0.979603236    15.468954724     0.586856098
 C       -0.659013395    16.446076402     1.539762599
 C        0.412130967    17.304109675     1.351696386
 C        1.197223304    17.217327446     0.182532599
 C        0.889666812    16.225426974    -0.762368343
 C       -0.167233911    15.351138140    -0.543778814
 N        2.282144848    18.109261733     0.024996819
 C        1.993628953    19.521884160     0.354209948
 C        3.091147614    17.942906433    -1.193554880
 C        0.687076816    20.085665265    -0.234758865
 C        0.838478352    20.568111571    -1.690370243
 N       -0.328728439    20.282254669    -2.552442185
 C       -0.445813029    18.911757607    -2.924639256
 C        0.565412955    18.389949515    -3.754034708
 C        0.518209456    17.065450998    -4.156696046
 C       -0.552799879    16.236325769    -3.788070920
 C       -1.567642940    16.768493839    -2.989247139
 C       -1.524179310    18.093205093    -2.563800755
 C       -1.565387574    20.914354107    -2.062052652
 C       -0.541705159    14.845651266    -4.247000498
 C       -1.490294023    13.939101014    -3.976517840
Si       -1.428310874    12.205566992    -4.577290998
 C        0.111081150    11.976402327    -5.569271230
 C        0.207105789    12.537992301    -6.849477840
 C        1.362438240    12.372754257    -7.608257203
 C        2.454223323    11.652654384    -7.104262895
 C        2.358033915    11.099532318    -5.824769114
 C        1.200107493    11.259999426    -5.063973566
 C        3.643210244    11.506823829    -7.937587001
 C        4.752843650    10.840095167    -7.576786475
 C        5.941958841    10.694170102    -8.410031458
 C        6.038618288    11.247254116    -9.689896725
 C        7.194812357    11.082977775   -10.452030854
 C        8.285715324    10.368066820    -9.946185390
 C        8.191589968     9.813375509    -8.663529538
 C        7.032570463     9.971995836    -7.907893761
Si        9.818604859    10.147991037   -10.951645899
 C       10.012818897    11.571159239   -12.148408876
 C       11.313322861    10.092460452    -9.829946669
 C        9.675620680     8.542823687   -11.897125317
 C       -1.443045864    11.040806608    -3.119815350
 C       -2.926086074    11.875514048    -5.643604636
 C       -5.093169368    12.714825181    -1.212857596
 C       -4.809123684    12.795590271     1.835712968
 C       -0.603498408    -0.890036668    -1.529378829
 C       -0.627302670    -0.866841113     1.531907546
 H        1.208488541     2.691020540     0.606779576
 H        0.296330001     4.941231522     0.592193779
 H       -3.548251328     3.420139991    -0.604060266
 H       -2.677737563     1.149797678    -0.602135885
 H       -3.330876654     5.720769304    -0.309498550
 H       -0.552956302     6.783792683     0.551577601
 H       -4.180015665     7.549892000    -0.352381419
 H       -5.103371764     9.795684359    -0.371839288
 H       -1.225654670    11.360971084     0.839542392
 H       -0.344638367     9.090039661     0.849502829
 H       -1.967010550    13.449122798    -0.961884878
 H       -2.635212955    14.789264848     1.778529389
 H       -1.260335593    16.536149704     2.444360001
 H        0.654458060    18.039518535     2.113583105
 H        1.461615508    16.131468019    -1.682509508
 H       -0.374272417    14.581676305    -1.293078306
 H        3.941818242    18.643539080    -1.171541359
 H        2.529147358    18.096927818    -2.130244204
 H        3.516807409    16.922069898    -1.203214027
 H       -1.396530639    22.001833710    -1.977897638
 H       -1.915192728    20.541232767    -1.087102683
 H       -2.367249159    20.765275448    -2.807033250
 H        1.374479202    19.037422919    -4.085048987
 H        1.315356463    16.669233865    -4.786959328
 H       -2.407750318    16.142595741    -2.683778335
 H       -2.319833684    18.471668546    -1.928713341
 H        0.347051525    14.606313839    -4.851559837
 H       -2.375167728    14.191146506    -3.373321609
 H       -0.610876436    13.113432871    -7.293423699
 H        1.416547875    12.810157959    -8.603417939
 H        3.191179187    10.535260780    -5.409737893
 H        1.184204828    10.804331505    -4.069153060
 H        3.577882114    11.990877134    -8.916501136
 H        4.817546035    10.354381114    -6.598540635
 H        5.205768652    11.812228283   -10.104896647
 H        7.209218504    11.536454441   -11.447033769
 H        9.011491366     9.244742277    -8.216088462
 H        6.977493774     9.530551039    -6.914406057
 H        1.954713223    19.588927166     1.468288255
 H        2.858943567    20.148066280     0.047344494
 H       -0.108900518    19.313170893    -0.176808719
 H        0.326476239    20.914957495     0.400017346
 H        1.004249283    21.668579619    -1.715937703
 H        1.737927137    20.114057484    -2.161109055
 H        2.266924679    -1.028881682    -0.060205991
 H        2.278234340     0.457745075     0.917889299
 H        2.270948976     0.560968060    -0.863029521
 H       10.963486152    11.496850815   -12.705908351
 H       10.013519811    12.541373096   -11.619383753
 H        9.196576898    11.596172234   -12.891369566
 H       11.371803372    10.996437149    -9.196923881
 H       11.289773919     9.216357363    -9.158636893
 H       12.248940871    10.035490311   -10.414208889
 H        8.795936516     8.547281316   -12.565783883
 H       10.568551112     8.361551329   -12.520727217
 H        9.564046486     7.681642702   -11.214000321
 H       -0.730990950    11.346847201    -2.331920883
 H       -2.443267286    10.984379971    -2.652772217
 H       -1.179406891    10.011421997    -3.425084169
 H       -2.982574096    12.574316474    -6.496690510
 H       -2.900141897    10.850531201    -6.056164012
 H       -3.863008081    11.978699821    -5.068369502
 H       -4.610314474    12.459053223    -2.173371133
 H       -5.989484496    12.079297931    -1.110932206
 H       -5.435607298    13.763247208    -1.283006630
 H       -4.130852315    12.672365800     2.699929438
 H       -5.224884026    13.817814838     1.878665488
 H       -5.646998022    12.089245794     1.975061125
 H       -0.289010689    -0.362175752    -2.448172503
 H       -0.199440182    -1.916545724    -1.581006199
 H       -1.704640513    -0.965692389    -1.551581174
 H       -0.281446083    -0.358668156     2.450297353
 H       -1.731434399    -0.883951415     1.561977749
 H       -0.275194261    -1.912382622     1.576094399

