139   

Si        0.000000000     0.000000000     0.000000000
 C        1.869322133     0.000000000     0.000000000
 C       -0.641859236     1.731277571     0.000000000
 C        0.125071778     2.783125317     0.511857820
 C       -0.367067021     4.087994312     0.508155652
 C       -1.637982333     4.370390608     0.000290237
 C       -2.407024085     3.315107052    -0.507515339
 C       -1.917249000     2.011599505    -0.507142122
 C       -2.193999315     5.719146917    -0.024145407
 C       -1.561205688     6.814848179     0.428266021
 C       -2.116773049     8.163837428     0.404063771
 C       -3.387680368     8.446549744    -0.103747157
 C       -3.879688452     9.751756636    -0.107337866
 C       -3.108565550    10.799987337     0.401803734
 C       -1.833658606    10.520371785     0.912554260
 C       -1.344579377     9.217489808     0.911847576
Si       -3.721568613    12.543526503     0.416428942
 C       -2.229617169    13.556144637     0.108774617
 C       -1.729087293    14.489777160     0.927241561
 C       -0.528703177    15.270264123     0.626577224
 C       -0.091478107    16.223650887     1.555432902
 C        1.038923069    16.988021433     1.317901475
 C        1.816876122    16.770257042     0.160107082
 C        1.384520664    15.804568260    -0.767284829
 C        0.218165181    15.086821484    -0.540889433
 N        2.961980538    17.558320098    -0.062132664
 C        3.743091487    17.942678413     1.131033295
 C        3.791045081    17.203044694    -1.225324956
 C        4.064217776    16.798876815     2.109794779
 C        5.262355244    15.939339752     1.664471013
 N        5.099614824    14.494743148     1.926826491
 C        4.236500712    13.820560358     1.018754757
 C        4.623532005    13.799379249    -0.335332524
 C        3.830859483    13.160924822    -1.274340426
 C        2.665667645    12.477275712    -0.892446687
 C        2.301073996    12.478573483     0.455430230
 C        3.072670890    13.142082864     1.405681074
 C        4.889063517    14.193806404     3.352654520
 C        1.875355554    11.824863559    -1.938317194
 C        0.744251589    11.136814913    -1.736311714
Si       -0.208755510    10.337296355    -3.085992387
 C        0.650897634    10.650388370    -4.690443174
 C        0.747339975    11.964225302    -5.171529385
 C        1.389588571    12.228528434    -6.377373805
 C        1.955748483    11.190692131    -7.130668930
 C        1.859951320     9.883451392    -6.647297463
 C        1.214388578     9.614862447    -5.439853006
 C        2.618759757    11.517996857    -8.388766781
 C        3.197806308    10.620487109    -9.204277820
 C        3.860886332    10.947493083   -10.462426490
 C        3.957376213    12.254298031   -10.946926256
 C        4.600791713    12.521295049   -12.155719967
 C        5.162471468    11.484825813   -12.906570851
 C        5.067405460    10.172527183   -12.423079717
 C        4.424717296     9.909238317   -11.216748562
Si        6.020522490    11.803369841   -14.509607614
 C        6.002528262    13.626003816   -14.923522129
 C        7.790494506    11.219835304   -14.367880356
 C        5.139845513    10.856277896   -15.858924525
 C       -0.302253715     8.506415515    -2.737395177
 C       -1.933251230    11.042869047    -3.175000107
 C       -4.941393972    12.836228526    -0.965862068
 C       -4.510653518    12.908123950     2.065775681
 C       -0.603286691    -0.898554113    -1.524409137
 C       -0.630580361    -0.859304103     1.534663323
 H        1.125967215     2.624615440     0.923085732
 H        0.252182319     4.889213067     0.908245145
 H       -3.399866379     3.512963129    -0.907563697
 H       -2.562725165     1.230089059    -0.917530918
 H       -3.199301805     5.791503700    -0.449731086
 H       -0.556341735     6.741250575     0.855411666
 H       -4.006553133     7.645855102    -0.504132341
 H       -4.879160413     9.913430804    -0.519063909
 H       -1.187727300    11.306358453     1.320424184
 H       -0.350306733     9.017069373     1.308511117
 H       -1.743078406    13.326714039    -0.855428896
 H       -2.185812798    14.744971074     1.891588417
 H       -0.658472383    16.384373838     2.472650934
 H        1.322191569    17.757302708     2.029993074
 H        1.958634341    15.596050652    -1.665533712
 H       -0.095950431    14.346614979    -1.281095235
 H        4.657621274    17.879989680    -1.294392536
 H        3.195450245    17.351080650    -2.145691297
 H        4.156348554    16.161408536    -1.207087375
 H        5.719644542    14.630358370     3.933797652
 H        4.927895782    13.099542772     3.500106518
 H        3.940583242    14.572252348     3.764470499
 H        5.554227067    14.275428142    -0.635305735
 H        4.132434254    13.169313394    -2.322554033
 H        1.393566534    11.964585897     0.775088624
 H        2.747147629    13.146514260     2.441464701
 H        2.314468311    11.953893298    -2.939933503
 H        0.314396422    11.006634212    -0.731247726
 H        0.324419803    12.814181960    -4.626087436
 H        1.451990128    13.253224611    -6.738179118
 H        2.290843041     9.059042036    -7.212451348
 H        1.171211400     8.571957282    -5.112624600
 H        2.617407796    12.581865124    -8.643274268
 H        3.198272101     9.556232180    -8.950262563
 H        3.527704338    13.079591737   -10.381946576
 H        4.643866171    13.563699277   -12.482850949
 H        5.487607706     9.322089761   -12.967422749
 H        4.360456156     8.883752062   -10.857218665
 H        4.679671219    18.444342457     0.803602558
 H        3.153243852    18.729380509     1.661667949
 H        4.253965545    17.218286171     3.114178631
 H        3.170043531    16.151063916     2.231897479
 H        5.463317622    16.080098473     0.580061060
 H        6.187856858    16.266128020     2.190522171
 H        2.267717253    -1.027789442    -0.072487182
 H        2.279462902     0.447768120     0.922192498
 H        2.269886025     0.571834130    -0.856636071
 H        6.519420433    13.821816294   -15.880104078
 H        6.510865222    14.223496033   -14.145900617
 H        4.971013263    14.008727133   -15.021965602
 H        8.327391769    11.762451000   -13.568599577
 H        7.844649032    10.143073811   -14.128600515
 H        8.343767165    11.380900873   -15.309751532
 H        4.083976831    11.171697281   -15.944273317
 H        5.616563136    11.018358909   -16.841568201
 H        5.143710481     9.769821779   -15.660947249
 H        0.701366687     8.054444742    -2.646573509
 H       -0.836455344     8.308764760    -1.787291053
 H       -0.845760012     7.968718988    -3.533741299
 H       -1.935185492    12.145808950    -3.138750121
 H       -2.437656851    10.738384380    -4.109404240
 H       -2.549309184    10.671516032    -2.334219558
 H       -4.518412764    12.551139195    -1.946544303
 H       -5.869711766    12.257386332    -0.819602181
 H       -5.223525679    13.903349697    -1.026703305
 H       -3.803739830    12.742098159     2.898886403
 H       -4.857648018    13.955325134     2.124038406
 H       -5.385936717    12.258024748     2.244938251
 H       -0.307025032    -0.365175124    -2.445919925
 H       -0.181010908    -1.917661647    -1.580652850
 H       -1.702867313    -0.995925543    -1.535127336
 H       -0.285892600    -0.348048467     2.451666370
 H       -1.734929931    -0.874645297     1.562577567
 H       -0.280228211    -1.905270701     1.583445763

