139   

Si        0.000000000     0.000000000     0.000000000
 C        1.869472123     0.000000000     0.000000000
 C       -0.638207084     1.732256915     0.000000000
 C        0.101583313     2.765833443    -0.584583866
 C       -0.382060473     4.073739983    -0.583656288
 C       -1.617533005     4.378234839    -0.005482563
 C       -2.359490785     3.341135972     0.574937428
 C       -1.878210207     2.034268863     0.576847269
 C       -2.163909615     5.731213113     0.019187719
 C       -1.555221104     6.811453428    -0.498950882
 C       -2.101443446     8.164511464    -0.474375129
 C       -3.337717040     8.466998770     0.104591591
 C       -3.822759603     9.773849499     0.106439344
 C       -3.077580550    10.808952317    -0.469320914
 C       -1.839984126    10.509732866    -1.050686220
 C       -1.360339969     9.201860339    -1.054629897
Si       -3.727320175    12.536378346    -0.462483530
 C       -2.373106998    13.678219763    -0.927725605
 C       -2.381372984    14.498755691    -1.986638821
 C       -1.283486948    15.402342469    -2.335430609
 C       -1.410786872    16.214995536    -3.472113343
 C       -0.402426168    17.086808992    -3.846234889
 C        0.803677449    17.141515352    -3.113342087
 C        0.932989012    16.326182200    -1.974141217
 C       -0.107094036    15.489983903    -1.587084148
 N        1.811779113    18.037117267    -3.516053474
 C        2.025676662    18.173071595    -4.968840928
 C        3.069601091    18.017234282    -2.752100131
 C        2.311436797    16.834237812    -5.680103789
 C        3.161371601    17.025951106    -6.949354131
 N        4.608081322    16.770222229    -6.763251553
 C        5.211047527    17.577801001    -5.761742077
 C        5.198363508    18.973725061    -5.958048539
 C        5.770248344    19.813662038    -5.017340652
 C        6.404413245    19.295165656    -3.876860376
 C        6.436658234    17.910651905    -3.700858128
 C        5.855037798    17.055069187    -4.631178479
 C        4.918942749    15.331264508    -6.697726111
 C        6.991885114    20.230459278    -2.915377183
 C        7.621994330    19.862742721    -1.792089297
Si        8.357956482    21.033044218    -0.587486283
 C        8.089942147    22.762207085    -1.170844938
 C        9.154628700    23.595506563    -1.529068525
 C        8.916121510    24.897172512    -1.965831265
 C        7.610227034    25.393846734    -2.061429096
 C        6.547644744    24.556906360    -1.706145565
 C        6.782561301    23.255872007    -1.266133355
 C        7.410344107    26.763454644    -2.523976379
 C        6.212110182    27.357312854    -2.656390782
 C        6.008998503    28.726473668    -3.118585130
 C        7.067220285    29.567171930    -3.474904084
 C        6.826693313    30.869444762    -3.911616660
 C        5.519265697    31.357970349    -4.009402801
 C        4.457369944    30.517205808    -3.653637923
 C        4.700774734    29.219281503    -3.210996393
Si        5.201392037    33.082652853    -4.587805394
 C        6.520640360    33.600311402    -5.807133520
 C        3.532164430    33.181201129    -5.423814562
 C        5.232228660    34.215147078    -3.101986591
 C        7.524443467    20.809056293     1.069006890
 C       10.179308119    20.651256952    -0.431449229
 C       -5.156019155    12.639852079    -1.660337106
 C       -4.300703271    12.987018397     1.257910326
 C       -0.631129856    -0.857613729    -1.535629395
 C       -0.604071537    -0.901840416     1.522441788
 H        1.074196919     2.590225310    -1.052605955
 H        0.215343655     4.860265349    -1.041408623
 H       -3.324445910     3.555914685     1.030625707
 H       -2.501627175     1.267988535     1.045757882
 H       -3.140360711     5.820818901     0.504402399
 H       -0.578948403     6.721110221    -0.984455890
 H       -3.933774120     7.678904689     0.560999319
 H       -4.796178043     9.949235139     0.572662396
 H       -1.217803066    11.279859603    -1.518724104
 H       -0.397067238     8.987361990    -1.513724812
 H       -1.513083339    13.648046448    -0.239288029
 H       -3.224739252    14.554557062    -2.687745058
 H       -2.323882660    16.171003157    -4.066331469
 H       -0.544016986    17.730962779    -4.709482136
 H        1.842327407    16.340528557    -1.381466999
 H        0.013054483    14.879854102    -0.690371349
 H        3.742736827    18.813767986    -3.122598478
 H        3.614890147    17.062114681    -2.818373111
 H        2.859582749    18.245432776    -1.692331916
 H        4.571660751    14.852293182    -7.630260289
 H        4.461023504    14.804640351    -5.845965780
 H        6.013900691    15.194023587    -6.656581896
 H        4.746740764    19.385800257    -6.858096465
 H        5.743453508    20.892922094    -5.175562976
 H        6.927843855    17.484019874    -2.825441677
 H        5.894004013    15.983418797    -4.460078310
 H        6.868638447    21.283701708    -3.208875007
 H        7.740882259    18.802941719    -1.520444043
 H       10.194597049    23.261654936    -1.477676665
 H        9.757695980    25.531808767    -2.237609688
 H        5.522858852    24.918696316    -1.770361866
 H        5.910688131    22.649223701    -1.000934777
 H        8.330118210    27.303427075    -2.767301131
 H        5.292542977    26.816780382    -2.412376182
 H        8.093551191    29.209679212    -3.412524577
 H        7.695401917    31.479651262    -4.174298855
 H        3.415191362    30.843686550    -3.710019689
 H        3.862016118    28.582020570    -2.936642173
 H        1.127672943    18.661543639    -5.409276321
 H        2.864893692    18.889199977    -5.128465659
 H        2.819685400    16.140400230    -4.982711440
 H        1.356853613    16.334130232    -5.928419894
 H        2.799460134    16.351042419    -7.757349584
 H        3.046894575    18.058013165    -7.349910829
 H        2.267812923    -1.027416461     0.076505628
 H        2.269671534     0.575672604     0.854252809
 H        2.279260794     0.444606102    -0.923736359
 H        6.308545021    34.601060701    -6.223794390
 H        6.580550468    32.893874020    -6.654842800
 H        7.518799617    33.643394563    -5.337370392
 H        3.457280585    32.455676886    -6.253961510
 H        2.708022632    32.970150666    -4.720172822
 H        3.355861162    34.186797775    -5.845614806
 H        6.208159074    34.174823637    -2.585457205
 H        5.050427377    35.264881167    -3.392151247
 H        4.458741939    33.932940740    -2.365173434
 H        6.435126633    20.981841001     1.001652942
 H        7.675370917    19.788900300     1.463682741
 H        7.926144479    21.518722316     1.815209349
 H       10.693805686    20.733635328    -1.406367727
 H       10.676814942    21.342334616     0.272330866
 H       10.344529487    19.624242795    -0.059330829
 H       -4.837800060    12.382863263    -2.687273491
 H       -5.964495609    11.940255202    -1.382779856
 H       -5.588160567    13.655981484    -1.685973566
 H       -3.485910556    12.873805964     1.995873838
 H       -4.643447231    14.036789528     1.300820365
 H       -5.138534175    12.348344564     1.587247115
 H       -0.288053459    -0.344905088    -2.452267581
 H       -0.280359381    -1.903291387    -1.585916201
 H       -1.735565616    -0.873392283    -1.562097622
 H       -0.308803591    -0.369979047     2.445081798
 H       -1.703523466    -1.000646497     1.531464452
 H       -0.180816480    -1.920634028     1.576878897

