139   

Si        0.000000000     0.000000000     0.000000000
 C        1.869164720     0.000000000     0.000000000
 C       -0.654831067     1.726002626     0.000000000
 C        0.183257894     2.826161460     0.203860780
 C       -0.332810250     4.122210991     0.199905654
 C       -1.696582385     4.347433576    -0.003856669
 C       -2.535893457     3.243137402    -0.205024893
 C       -2.023754866     1.948648880    -0.202260556
 C       -2.280887717     5.684629002    -0.016202186
 C       -1.589247569     6.822850624     0.162801902
 C       -2.172554178     8.160525786     0.150644552
 C       -3.537000278     8.386098696    -0.053204027
 C       -4.052260759     9.681805441    -0.057051131
 C       -3.209298477    10.781273814     0.134848405
 C       -1.841755257    10.559457494     0.338655428
 C       -1.331895498     9.263592001     0.349603693
Si       -3.881804239    12.499785615     0.131406207
 C       -2.516563460    13.642939474    -0.299354892
 C       -2.060965403    14.638314526     0.472600550
 C       -0.965604154    15.533649015     0.094411743
 C       -0.574244250    16.542549485     0.987043872
 C        0.456100301    17.414231903     0.675294207
 C        1.169202589    17.273912293    -0.534486569
 C        0.779160839    16.262330016    -1.429161243
 C       -0.285682862    15.424040176    -1.121100994
 N        2.214367729    18.179087087    -0.822710338
 C        3.117819370    18.492295676     0.302439868
 C        2.943717165    17.966422372    -2.084948274
 C        3.824216715    17.249849283     0.867439557
 C        4.750729676    17.632706055     2.032175981
 N        5.486939060    16.479246276     2.585549159
 C        6.330968435    15.793062986     1.686804230
 C        7.079788728    16.527323104     0.742143371
 C        7.915240569    15.876558778    -0.150587721
 C        8.076861582    14.483801064    -0.109082648
 C        7.357710984    13.761739942     0.846366472
 C        6.501632131    14.397860332     1.737286763
 C        4.649208798    15.651169612     3.470308317
 C        8.972564274    13.848439492    -1.076735199
 C        9.208408251    12.531107835    -1.137070844
Si       10.326216356    11.721934260    -2.341920272
 C       11.076558586    12.986706075    -3.456384135
 C       10.869253213    12.965548215    -4.839612697
 C       11.449432316    13.934647860    -5.655765002
 C       12.245031688    14.949672552    -5.109652522
 C       12.449129772    14.969585495    -3.726370973
 C       11.873132871    13.999944825    -2.907978155
 C       12.830604893    15.941418350    -6.005734968
 C       13.612935103    16.960808306    -5.612260682
 C       14.198169794    17.952218378    -6.509061822
 C       13.993965543    17.931995754    -7.891504896
 C       14.572771973    18.899727064    -8.711886386
 C       15.362254779    19.917242462    -8.165396016
 C       15.567476738    19.940364288    -6.780114057
 C       14.995264842    18.967560334    -5.964196934
Si       16.129663544    21.199704932    -9.249785933
 C       15.080220910    21.461660361   -10.774658800
 C       16.267392707    22.818644855    -8.324921348
 C       17.830429425    20.607189073    -9.746990186
 C       11.692276637    10.846813741    -1.415052020
 C        9.333734156    10.476175098    -3.318718350
 C       -5.212138424    12.672909393    -1.168687382
 C       -4.588675719    12.865579887     1.820047959
 C       -0.608468457    -0.882831220    -1.531371992
 C       -0.625034199    -0.870476867     1.530822620
 H        1.258310995     2.713557016     0.368878503
 H        0.341958381     4.961598534     0.358805156
 H       -3.601571927     3.396490890    -0.365367159
 H       -2.727100600     1.127048599    -0.364226695
 H       -3.361167997     5.710176728    -0.186935437
 H       -0.508828126     6.797149838     0.333457672
 H       -4.211511535     7.546539664    -0.210438381
 H       -5.127457235     9.795911671    -0.219273666
 H       -1.137111481    11.383718009     0.493041098
 H       -0.266561135     9.109668705     0.511700742
 H       -2.076645850    13.445844522    -1.290852051
 H       -2.480012061    14.861087963     1.462640622
 H       -1.096507041    16.653845432     1.937586189
 H        0.712668127    18.210355077     1.368862940
 H        1.300895193    16.119804288    -2.370737684
 H       -0.576902761    14.656072297    -1.839851294
 H        3.671884064    18.782895272    -2.230037908
 H        2.233457937    18.020044612    -2.929407932
 H        3.484707620    17.007071748    -2.131190507
 H        4.074044540    16.301162930     4.151399509
 H        5.300548356    15.023399347     4.104723896
 H        3.940767037    15.002092423     2.930035764
 H        7.002247468    17.610382098     0.707195705
 H        8.466796175    16.461342602    -0.888289771
 H        7.463321227    12.677283152     0.900179170
 H        5.957895548    13.795952072     2.458486998
 H        9.440515998    14.566289554    -1.766615547
 H        8.724072048    11.831981428    -0.438044011
 H       10.255348364    12.200279623    -5.322201827
 H       11.278918094    13.899845301    -6.730148099
 H       13.064228928    15.747087212    -3.276722862
 H       12.070762794    14.065691861    -1.833113755
 H       12.587092217    15.802560255    -7.063234220
 H       13.857672351    17.099583867    -4.554989159
 H       13.379122875    17.154479322    -8.341448939
 H       14.379109897    18.828998767    -9.785858801
 H       16.174519130    20.710912826    -6.296760358
 H       15.169213430    19.000887246    -4.890160824
 H        3.863492491    19.242078430    -0.045120221
 H        2.525441205    19.000670882     1.096403829
 H        3.075275096    16.505487067     1.201207350
 H        4.404684119    16.743494142     0.071095608
 H        5.491813479    18.398805838     1.709057098
 H        4.168892523    18.105680022     2.854760511
 H        2.266543737    -1.028886490    -0.064064509
 H        2.277076239     0.453723000     0.920526924
 H        2.272230242     0.563699419    -0.860477080
 H       15.478229391    22.283041618   -11.396834444
 H       14.041040860    21.723542362   -10.504912178
 H       15.043365092    20.557581669   -11.407211019
 H       15.282340905    23.148204942    -7.947608672
 H       16.947078108    22.739743092    -7.458556279
 H       16.657260904    23.619484012    -8.978218004
 H       17.778518607    19.647080284   -10.291403737
 H       18.335256794    21.337109446   -10.403924092
 H       18.475652269    20.449317670    -8.864039754
 H       12.278903814    11.552296155    -0.799190577
 H       11.290820702    10.070773337    -0.740042079
 H       12.393889870    10.353960084    -2.112089705
 H        8.503756965    10.961202813    -3.864126841
 H        9.962137906     9.949567360    -4.058558594
 H        8.888879963     9.710837595    -2.657825735
 H       -4.839754415    12.380567192    -2.167279795
 H       -6.088586993    12.041537644    -0.941556771
 H       -5.564710729    13.718080473    -1.240043162
 H       -3.818434928    12.774187011     2.607448808
 H       -5.003495623    13.887941370     1.871162951
 H       -5.402037601    12.162569530     2.074908019
 H       -0.280497101    -0.361468310    -2.449133679
 H       -0.221712681    -1.916048172    -1.579336737
 H       -1.710787498    -0.938618089    -1.559348363
 H       -0.279511592    -0.362551166     2.449560872
 H       -1.728982324    -0.890549616     1.561720770
 H       -0.270181193    -1.915160771     1.573665380

