139   

Si        0.000000000     0.000000000     0.000000000
 C        1.869925297     0.000000000     0.000000000
 C       -0.654279429     1.724721449     0.000000000
 C        0.196934052     2.829975990     0.081142434
 C       -0.320932088     4.125036912     0.079444855
 C       -1.699444496     4.344232752     0.019294112
 C       -2.551898812     3.234497687    -0.056632619
 C       -2.037347669     1.941111841    -0.071862106
 C       -2.280693735     5.682240417     0.015397274
 C       -1.561934556     6.816289733     0.068273167
 C       -2.126171976     8.161110599     0.065282665
 C       -1.250407813     9.252692085     0.124707766
 C       -1.738247606    10.557214789     0.124565712
 C       -3.116071462    10.795296555     0.088700115
 C       -3.993818238     9.706422373     0.034966748
 C       -3.502216982     8.402643551     0.017418912
Si       -3.800021980    12.506375948     0.087288129
 C       -5.328936659    12.493023008     1.093832280
 C       -6.550850332    12.817534165     0.651741146
 C       -7.753472232    12.795518284     1.486288889
 C       -8.981245136    13.154764583     0.918686948
 C      -10.150380713    13.150239521     1.667229684
 C      -10.124545318    12.771953636     3.023134126
 C       -8.886855813    12.419471699     3.598065450
 C       -7.725686372    12.446589889     2.841084072
 N      -11.289800236    12.754335086     3.816738205
 C      -11.422131902    11.663377871     4.799576180
 C      -12.560166197    13.059714292     3.138274860
 C      -11.561915889    10.264894634     4.168534074
 C      -10.303873137     9.408644627     4.405155489
 N      -10.159521318     8.222040777     3.539749444
 C       -9.600352255     8.539032101     2.248926627
 C       -8.264933928     8.157154570     2.061121383
 C       -7.637678897     8.419032361     0.851323837
 C       -8.311426777     9.100522563    -0.172786873
 C       -9.641759991     9.479283872     0.026530707
 C      -10.292307247     9.186889821     1.221359233
 C      -11.386046003     7.409970716     3.434742033
 C       -7.599645137     9.349460467    -1.429214569
 C       -8.121367491     9.986241728    -2.485458475
Si       -7.209082941    10.286031724    -4.049300963
 C       -5.516421729     9.571486050    -3.883958335
 C       -4.353570284    10.346062476    -3.904677016
 C       -3.101890016     9.745135518    -3.774711552
 C       -2.984928942     8.359152777    -3.617793327
 C       -4.150762489     7.586450369    -3.597562056
 C       -5.401441541     8.182929822    -3.730669808
 C       -1.658582117     7.765163419    -3.484732846
 C       -1.437316292     6.448331432    -3.333511835
 C       -0.124792491     5.827881446    -3.198378607
 C        1.064550959     6.560704215    -3.213141511
 C        2.296061566     5.919727329    -3.080116654
 C        2.365178678     4.528873063    -2.950049385
 C        1.174437575     3.791444401    -2.944611878
 C       -0.054130033     4.434689090    -3.066696285
Si        3.986162283     3.665807496    -2.773201295
 C        4.284615740     3.352650245    -0.953693373
 C        3.929312352     2.035768665    -3.687717894
 C        5.366920458     4.715058300    -3.469320071
 C       -8.102359309     9.457241189    -5.463210172
 C       -7.138142509    12.130772663    -4.338880108
 C       -2.595648007    13.691370929     0.889621409
 C       -4.129431014    13.048548659    -1.665972697
 C       -0.604717509    -0.865660823    -1.543251878
 C       -0.624843260    -0.881186580     1.524031808
 H        1.283880140     2.725247059     0.139639249
 H        0.366794179     4.969083721     0.123861390
 H       -3.628674327     3.383517619    -0.105980154
 H       -2.750177962     1.115220091    -0.138372197
 H       -3.372448582     5.712159499    -0.033398289
 H       -0.468530054     6.779910049     0.110269067
 H       -0.176458441     9.082326241     0.163216685
 H       -1.009547051    11.370473973     0.161990311
 H       -5.081707180     9.841917519     0.005799805
 H       -4.200138011     7.569397438    -0.036661121
 H       -5.164692602    12.182396268     2.138222466
 H       -6.748918642    13.119752464    -0.384993169
 H       -9.027224526    13.435155065    -0.134241773
 H      -11.080939719    13.428392318     1.184029910
 H       -8.829416481    12.153684070     4.650098946
 H       -6.779660084    12.174225739     3.312596892
 H      -13.375204154    13.101031002     3.880641272
 H      -12.835341142    12.329126970     2.360836851
 H      -12.496708253    14.063719523     2.680666787
 H      -11.714415379     7.126210010     4.448138300
 H      -11.143029520     6.479532147     2.891262606
 H      -12.222904620     7.900518695     2.916891747
 H       -7.736193346     7.652172897     2.869500867
 H       -6.603159572     8.105654079     0.707140366
 H      -10.183288058    10.007421304    -0.757155970
 H      -11.331921921     9.471812774     1.352208828
 H       -6.570092406     8.957558369    -1.423822253
 H       -9.148882276    10.378295126    -2.471474217
 H       -4.382660960    11.431322641    -4.030667919
 H       -2.207420153    10.364850101    -3.785858822
 H       -4.087308430     6.506148511    -3.475994375
 H       -6.275679156     7.524634287    -3.708543703
 H       -0.828928136     8.475603357    -3.511628408
 H       -2.275642207     5.744667404    -3.297323416
 H        1.036539384     7.643132559    -3.322105410
 H        3.191612208     6.545985773    -3.090821385
 H        1.163210909     2.702328055    -2.842671533
 H       -0.969870521     3.844619677    -3.048754746
 H      -10.552662630    11.706373038     5.493711889
 H      -12.309122194    11.887172592     5.435401561
 H      -12.449250193     9.750243182     4.576347971
 H      -11.747857355    10.362132205     3.081848165
 H       -9.385773906    10.029456913     4.277769376
 H      -10.292669526     9.036452771     5.455238146
 H        2.266730769    -1.030552910     0.020276593
 H        2.276211424     0.526185431     0.882021241
 H        2.274888100     0.491455720    -0.903027921
 H        5.262890550     2.869895639    -0.785588585
 H        3.508628822     2.693196593    -0.524727612
 H        4.274001963     4.295345238    -0.377766598
 H        3.167151189     1.355730832    -3.267795861
 H        3.687163039     2.186817949    -4.755404550
 H        4.901491492     1.514834869    -3.638559410
 H        5.490221336     5.656578089    -2.906278905
 H        6.332588940     4.180424941    -3.432898922
 H        5.175487380     4.980395856    -4.524836969
 H       -8.192097440     8.367474942    -5.304900106
 H       -9.123038294     9.858377014    -5.589750837
 H       -7.564226176     9.607561302    -6.416748473
 H       -6.670474385    12.659080170    -3.487805442
 H       -6.556162202    12.371396593    -5.246053422
 H       -8.149303471    12.554103918    -4.473233527
 H       -2.301760920    13.347488991     1.897289028
 H       -1.675288939    13.802723844     0.291415130
 H       -3.042421868    14.695717593     1.001599090
 H       -4.908460890    12.415679207    -2.129239489
 H       -4.475803678    14.096020505    -1.705122671
 H       -3.220700534    12.971922005    -2.288506054
 H       -0.259754640    -0.347018233    -2.456085127
 H       -0.236954625    -1.905408290    -1.590906363
 H       -1.707590711    -0.901398825    -1.581764687
 H       -0.279966087    -0.379351037     2.446426044
 H       -1.728607069    -0.902461532     1.555308122
 H       -0.269925946    -1.925887290     1.560552007

