139   

Si        0.000000000     0.000000000     0.000000000
 C        1.868030927     0.000000000     0.000000000
 C       -0.586123626     1.750901605     0.000000000
 C       -0.771094357     2.439834792     1.203846398
 C       -1.213642229     3.761871919     1.204138783
 C       -1.462767823     4.432822713     0.003829307
 C       -1.270700473     3.743837732    -1.200683657
 C       -0.840857996     2.418954867    -1.203958309
 C       -1.926336324     5.814879073    -0.041352876
 C       -2.161355163     6.582748434     1.036727356
 C       -2.625333224     7.965102766     0.976381513
 C       -2.836061673     8.667472343     2.170178593
 C       -3.278698487     9.988649645     2.152030193
 C       -3.512658806    10.639766490     0.935286624
 C       -3.301934845     9.939821867    -0.257871105
 C       -2.866399462     8.616492607    -0.236069681
Si       -4.099831315    12.390946903     0.875273251
 C       -4.559127562    12.731230741    -0.864390659
 C       -4.015914670    13.672551541    -1.646505183
 C       -4.412385561    13.912488061    -3.034516172
 C       -3.773621186    14.926275092    -3.757442326
 C       -4.112352579    15.194010754    -5.075896593
 C       -5.189500092    14.520694389    -5.686935907
 C       -5.852612607    13.516669425    -4.947892314
 C       -5.448745464    13.208686712    -3.658592214
 N       -5.564072112    14.762058899    -7.016401982
 C       -4.928722228    15.862931308    -7.754678402
 C       -6.983216179    14.544513761    -7.343130383
 C       -5.151171978    17.278652935    -7.194215007
 C       -6.521555130    17.879038844    -7.557070122
 N       -7.188549088    18.593120206    -6.446952454
 C       -7.659215093    17.699472130    -5.427021785
 C       -8.912874299    17.111927587    -5.660146883
 C       -9.446416123    16.235233219    -4.728289572
 C       -8.735582817    15.897139517    -3.566301171
 C       -7.489933581    16.488087519    -3.342090393
 C       -6.959553858    17.397232007    -4.253422634
 C       -6.397232141    19.725841274    -5.932567496
 C       -9.359280539    14.964441750    -2.624017577
 C       -8.809811192    14.546595477    -1.476057133
Si       -9.640766573    13.376179765    -0.335902354
 C       -8.716211362    11.811219936    -0.043274505
 C       -7.823926797    11.257164123    -0.966162128
 C       -7.156080029    10.065890460    -0.678107980
 C       -7.366639594     9.401799381     0.536100652
 C       -8.266262140     9.957724621     1.452731312
 C       -8.937584169    11.142614726     1.167491094
 C       -6.660568012     8.155194180     0.824509606
 C       -6.826013919     7.471998561     1.970002044
 C       -6.166877307     6.226736754     2.340637008
 C       -5.249393585     5.567470560     1.520614248
 C       -4.653396065     4.376138892     1.937033165
 C       -4.976342095     3.811376296     3.175316824
 C       -5.898294684     4.470825002     3.997981294
 C       -6.480030228     5.665882319     3.587010462
Si       -4.198259366     2.236835335     3.742231068
 C       -2.579624673     2.631478315     4.590646849
 C       -5.326799933     1.354077843     4.945241775
 C       -3.908467545     1.128807890     2.267089939
 C       -9.827111900    14.296457881     1.284768405
 C      -11.327460265    12.897308377    -0.986227522
 C       -5.609323255    12.598877311     1.949632661
 C       -2.730248723    13.515026084     1.464715233
 C       -0.639576728    -0.889035530    -1.514623908
 C       -0.627788641    -0.879273135     1.526271745
 H       -0.578137644     1.971987409     2.173987052
 H       -1.348016510     4.281015893     2.152629054
 H       -1.459554352     4.246224191    -2.147376716
 H       -0.714050087     1.932569606    -2.174774129
 H       -2.073983472     6.212059189    -1.049911728
 H       -2.018187448     6.189784692     2.047991154
 H       -2.663359886     8.173736819     3.124788089
 H       -3.436926016    10.484032950     3.113239587
 H       -3.462553203    10.399167909    -1.239111141
 H       -2.710510887     8.095021450    -1.178492218
 H       -5.365181574    12.076569357    -1.235470124
 H       -3.218156242    14.342751764    -1.301934489
 H       -2.971548499    15.499740578    -3.291495222
 H       -3.536172538    15.932943868    -5.622327420
 H       -6.679692754    12.967876968    -5.387821106
 H       -5.963728082    12.410843509    -3.120697893
 H       -7.206795434    14.885378942    -8.366020000
 H       -7.667681582    15.059827746    -6.644306691
 H       -7.199206669    13.460602206    -7.312575736
 H       -6.272955720    20.460765075    -6.746497120
 H       -5.400882503    19.460822081    -5.549017166
 H       -6.962756139    20.222049939    -5.124293495
 H       -9.463490799    17.370055987    -6.563241973
 H      -10.429506737    15.800255438    -4.906846497
 H       -6.918166163    16.236332825    -2.447103611
 H       -5.992902562    17.852000397    -4.053291947
 H      -10.348969021    14.625388378    -2.962614599
 H       -7.814652045    14.890153450    -1.152848660
 H       -7.629686772    11.734786654    -1.931272590
 H       -6.461213912     9.649094191    -1.405612175
 H       -8.453052880     9.463612796     2.405044332
 H       -9.629370077    11.518124753     1.927168783
 H       -5.971244485     7.811234973     0.050576698
 H       -7.516565087     7.848145005     2.734687687
 H       -4.982667181     5.987380206     0.551423238
 H       -3.934321667     3.909888758     1.254080135
 H       -6.190052753     4.078650413     4.975485060
 H       -7.190400900     6.166469004     4.241843106
 H       -3.832268285    15.645630181    -7.783461044
 H       -5.268215051    15.812566644    -8.814129251
 H       -5.043106214    17.255921883    -6.089576082
 H       -4.344161064    17.942816471    -7.553548167
 H       -6.417409536    18.602158476    -8.396386812
 H       -7.219565594    17.091453199    -7.915913462
 H        2.270577197    -1.028081382     0.006898167
 H        2.271042184     0.523064633     0.885890916
 H        2.270692490     0.510249900    -0.893513565
 H       -2.086990153     1.713789821     4.956297380
 H       -2.736687767     3.295452541     5.459351124
 H       -1.876188675     3.141452812     3.909255409
 H       -5.461706871     1.927386061     5.878397555
 H       -6.327535791     1.189700754     4.506847148
 H       -4.920129430     0.365416134     5.221558344
 H       -3.210088224     1.590001880     1.542567508
 H       -3.482628540     0.156520698     2.568819382
 H       -4.851872496     0.927977063     1.728069023
 H       -8.846077208    14.469317643     1.762610594
 H      -10.297279161    15.283910145     1.125882860
 H      -10.457005287    13.743032408     2.001474625
 H      -11.253297636    12.381372490    -1.960306770
 H      -11.841293953    12.209164881    -0.291188133
 H      -11.976753217    13.780317449    -1.119065048
 H       -6.411496225    11.896446572     1.644161313
 H       -5.385326497    12.400717515     3.011322413
 H       -6.021544115    13.620428235     1.874163026
 H       -1.824752009    13.406514205     0.840600382
 H       -3.036817916    14.575212875     1.431744802
 H       -2.441243942    13.283474915     2.505198351
 H       -0.228096295    -0.461323746    -2.445548351
 H       -0.365453796    -1.958897032    -1.494923980
 H       -1.741236391    -0.830143800    -1.578268837
 H       -0.230862177    -0.427313399     2.452149187
 H       -1.731190930    -0.842785883     1.582906901
 H       -0.330157465    -1.942761819     1.523880083

