139   

Si        0.000000000     0.000000000     0.000000000
 C        1.869107385     0.000000000     0.000000000
 C       -0.655689762     1.725729857     0.000000000
 C        0.193655607     2.832927758    -0.081681389
 C       -0.325656193     4.127727006    -0.079922134
 C       -1.703381776     4.344747802     0.002194937
 C       -2.553729623     3.233428560     0.082645784
 C       -2.038547273     1.940180911     0.080913506
 C       -2.291395845     5.680377328     0.007326863
 C       -1.590184056     6.824564858    -0.064663502
 C       -2.177621609     8.160449173    -0.059574256
 C       -1.326268224     9.270777545    -0.140267869
 C       -1.840423596    10.564872880    -0.138818562
 C       -3.222404150    10.778013979    -0.064190654
 C       -4.074647286     9.671991806     0.015685820
 C       -3.555894475     8.377571988     0.020896974
Si       -3.907038182    12.491483352    -0.062050467
 C       -5.671484453    12.408971283    -0.547894259
 C       -6.704255937    12.816626193     0.201294093
 C       -8.104647469    12.736179056    -0.218217430
 C       -9.102386855    13.195278577     0.653519710
 C      -10.441693157    13.141005792     0.303685584
 C      -10.837898686    12.571450487    -0.925622377
 C       -9.836972693    12.108459027    -1.800182172
 C       -8.495828824    12.213568578    -1.453756536
 N      -12.203064531    12.523367278    -1.267490139
 C      -13.158362906    12.319752419    -0.163176220
 C      -12.561642147    11.756011977    -2.472546567
 C      -12.977166822    10.968376768     0.546642531
 C      -13.946153271    10.848035618     1.733702417
 N      -13.907686469     9.523814680     2.378634876
 C      -14.317841614     8.419791931     1.609907683
 C      -15.264125671     8.582383030     0.575267696
 C      -15.669864953     7.496237538    -0.183549439
 C      -15.194780689     6.204829610     0.083258466
 C      -14.282027275     6.039847724     1.129133318
 C      -13.852033389     7.119766216     1.888378161
 C      -12.715587476     9.338969352     3.224399757
 C      -15.655805485     5.092565535    -0.749392658
 C      -15.268925756     3.820615760    -0.585555494
Si      -15.821152982     2.401592322    -1.603961322
 C      -16.656855584     1.184988014    -0.496675801
 C      -17.222644920     1.604057819     0.713778047
 C      -17.853912752     0.687720620     1.551176498
 C      -17.942417722    -0.664947837     1.196938540
 C      -17.380697133    -1.078384115    -0.014503231
 C      -16.745048701    -0.164344781    -0.854080185
 C      -18.613709888    -1.586694343     2.107730115
 C      -18.763793179    -2.904216310     1.889839606
 C      -19.435124911    -3.825657390     2.800821302
 C      -19.996983077    -3.413080820     4.012195331
 C      -20.629642468    -4.328275983     4.852937536
 C      -20.706582508    -5.680804549     4.504346639
 C      -20.143480751    -6.096913893     3.291246304
 C      -19.519323807    -5.179467959     2.449749938
Si      -21.542902035    -6.897225206     5.613330865
 C      -21.467839786    -6.309218653     7.386461554
 C      -23.325039809    -7.055590003     5.074840731
 C      -20.693279088    -8.558109032     5.490611678
 C      -17.029092754     2.926044329    -2.927478483
 C      -14.310570828     1.630681874    -2.388297047
 C       -3.691888115    13.216732701     1.644816478
 C       -3.011233237    13.542276695    -1.320785076
 C       -0.620758678    -0.873575277    -1.530945667
 C       -0.614203713    -0.877564365     1.531755039
 H        1.279901437     2.726928685    -0.148008170
 H        0.357774908     4.972672833    -0.143843658
 H       -3.630410157     3.380385105     0.147116657
 H       -2.750887577     1.112841964     0.145463522
 H       -3.383166551     5.699200273     0.076194687
 H       -0.498531817     6.805447398    -0.133574230
 H       -0.249909591     9.122933148    -0.203850841
 H       -1.128237771    11.392039366    -0.201876001
 H       -5.162782194     9.780970617     0.076824228
 H       -4.239263644     7.532703934     0.086255348
 H       -5.830871027    11.983156763    -1.552022245
 H       -6.577292651    13.247106019     1.203386313
 H       -8.822157216    13.615244811     1.620130598
 H      -11.185538335    13.539685666     0.987457089
 H      -10.095361441    11.668354091    -2.758224071
 H       -7.740342099    11.861446488    -2.158624105
 H      -13.650674017    11.809826272    -2.640312295
 H      -12.271497984    10.693560172    -2.421207985
 H      -12.080957512    12.218021164    -3.353887911
 H      -12.468222491    10.280387305     3.742996367
 H      -11.826245430     9.010926194     2.661080148
 H      -12.939780392     8.592851661     4.008334288
 H      -15.678483519     9.562342207     0.358172679
 H      -16.383741450     7.651396504    -0.993238311
 H      -13.896793496     5.045147002     1.361356187
 H      -13.144349340     6.944321254     2.692614528
 H      -16.361133977     5.401966389    -1.531989218
 H      -14.558226940     3.540387579     0.208991123
 H      -17.184715334     2.648806873     1.040717415
 H      -18.284279052     1.030290737     2.490589005
 H      -17.435544127    -2.123586746    -0.313036129
 H      -16.323149532    -0.546759821    -1.787390293
 H      -19.005795270    -1.124452678     3.018653471
 H      -18.372135258    -3.366381544     0.978878264
 H      -19.945762277    -2.367143418     4.309808728
 H      -21.052132926    -3.944607845     5.785802231
 H      -20.172689818    -7.140604121     2.966312529
 H      -19.090147754    -5.522039564     1.509933859
 H      -13.049913013    13.161147055     0.558431976
 H      -14.189909469    12.409190166    -0.573340680
 H      -13.140218882    10.136446411    -0.166017640
 H      -11.931215009    10.855922763     0.892683597
 H      -13.714590987    11.618170727     2.504478432
 H      -14.992695811    11.054426251     1.412563474
 H        2.267014755    -1.030123623     0.033797563
 H        2.273796096     0.538521997     0.875549880
 H        2.275013173     0.480125941    -0.908126781
 H      -21.885558204    -7.064892622     8.075353664
 H      -22.040856684    -5.377044064     7.533561918
 H      -20.426110799    -6.114752534     7.699875982
 H      -23.852368128    -6.086754694     5.139540325
 H      -23.399698205    -7.400484059     4.027855770
 H      -23.873705484    -7.777590273     5.704691179
 H      -19.617444865    -8.475246470     5.729518536
 H      -21.134608322    -9.285342802     6.195111381
 H      -20.777216169    -8.987822208     4.477221290
 H      -17.929707547     3.392784362    -2.488305297
 H      -16.575729488     3.655296218    -3.621908013
 H      -17.367805430     2.061387053    -3.526090001
 H      -13.617697760     1.235076144    -1.623672865
 H      -14.580325570     0.795744098    -3.057923125
 H      -13.752399731     2.371729490    -2.988944347
 H       -4.214847957    12.611721343     2.407781813
 H       -2.625890886    13.256043114     1.932433429
 H       -4.090224750    14.245436841     1.699309160
 H       -3.056080841    13.089531307    -2.327897465
 H       -3.461267357    14.549381107    -1.390356558
 H       -1.946322539    13.670869941    -1.060451658
 H       -0.275767572    -0.364901168    -2.449499271
 H       -0.261698912    -1.916890504    -1.572809706
 H       -1.724455648    -0.898382277    -1.563555150
 H       -0.271721063    -0.365771655     2.449596269
 H       -1.717422912    -0.911768489     1.565794207
 H       -0.246863687    -1.918032057     1.573810752

