139   

Si        0.000000000     0.000000000     0.000000000
 C        1.869415369     0.000000000     0.000000000
 C       -0.650814922     1.727457967     0.000000000
 C        0.162526530     2.810315596    -0.347942643
 C       -0.344760327     4.109742186    -0.342891028
 C       -1.675219600     4.355978729     0.006308007
 C       -2.490059843     3.268960338     0.350787191
 C       -1.986772627     1.970884932     0.345832787
 C       -2.249447453     5.697406092     0.025782943
 C       -1.579693291     6.820947842    -0.282555715
 C       -2.154678008     8.162033001    -0.262830884
 C       -3.485047445     8.406800006     0.086498949
 C       -3.993677906     9.705912891     0.091962967
 C       -3.182189082    10.788228008    -0.259333940
 C       -1.847334797    10.545559122    -0.612726401
 C       -1.341588747     9.248900800    -0.612944920
Si       -3.821740086    12.517934134    -0.262909709
 C       -2.844450705    13.560409534     0.883477247
 C       -1.811375736    13.134867157     1.622440342
 C       -1.044163167    13.985793845     2.532474735
 C        0.017569619    13.423178239     3.253158642
 C        0.776148743    14.184663649     4.128229085
 C        0.457398050    15.540447577     4.358390612
 C       -0.605578028    16.107212132     3.627274559
 C       -1.314226356    15.346283573     2.708301430
 N        1.225075706    16.315472472     5.245528770
 C        1.926780493    15.609944393     6.335619506
 C        0.642804282    17.603499942     5.660980098
 C        1.051692016    14.697118844     7.214318516
 C        0.283934175    15.451927376     8.316793635
 N       -1.121425322    15.021703119     8.502268102
 C       -1.954936363    15.442848158     7.412460406
 C       -2.450546757    16.754536839     7.487531375
 C       -3.264322132    17.244031629     6.476890626
 C       -3.577155121    16.455440166     5.360028124
 C       -3.089634526    15.146760750     5.302043051
 C       -2.307681514    14.629664333     6.330222064
 C       -1.245867207    13.592086972     8.839553161
 C       -4.441914893    17.022518757     4.321053299
 C       -4.810226981    16.369709834     3.211656104
Si       -5.889230622    17.048930556     1.894134760
 C       -7.363225126    15.945719015     1.791905278
 C       -7.895147387    15.380389164     2.957707298
 C       -9.007726428    14.546210434     2.891107565
 C       -9.612501729    14.253954332     1.661205603
 C       -9.077182190    14.818125305     0.500020795
 C       -7.963548716    15.655217211     0.563148837
 C      -10.776531655    13.374227771     1.643154762
 C      -11.447551565    13.016865445     0.535300936
 C      -12.611683277    12.137101871     0.516956045
 C      -13.147690565    11.572372988     1.678409641
 C      -14.261385135    10.736887682     1.615708880
 C      -14.864171473    10.444603103     0.386045907
 C      -14.329285868    11.007850715    -0.777678103
 C      -13.216716571    11.844291459    -0.711604751
Si      -16.338325005     9.334199198     0.336735084
 C      -15.883910244     7.697085589     1.115789101
 C      -17.724095221    10.139278247     1.298115784
 C      -16.894023204     9.044186447    -1.423994113
 C       -6.464856665    18.778876390     2.294928330
 C       -4.935259698    17.064928206     0.289151982
 C       -3.682553732    13.219118091    -1.989896780
 C       -5.605271939    12.570853908     0.290506313
 C       -0.627422753    -0.866030375    -1.532275814
 C       -0.604771645    -0.890633733     1.528587114
 H        1.211282211     2.681195396    -0.629126508
 H        0.310034582     4.935293473    -0.616301385
 H       -3.529815332     3.438629597     0.625021077
 H       -2.670546512     1.163468904     0.622235831
 H       -3.302939124     5.739644314     0.318247591
 H       -0.526610682     6.778885574    -0.575790493
 H       -4.138819028     7.580753709     0.360573480
 H       -5.041244307     9.835216429     0.379622794
 H       -1.166675620    11.353901998    -0.898576106
 H       -0.302838297     9.079310356    -0.889964315
 H       -3.174240490    14.610305402     0.920360312
 H       -1.461192166    12.092746117     1.608446837
 H        0.262326639    12.368581413     3.118234935
 H        1.621290727    13.725963600     4.631998753
 H       -0.883273741    17.147871123     3.765357859
 H       -2.113608166    15.822573810     2.137087901
 H        1.293018401    18.099008825     6.399135257
 H       -0.369252945    17.505708723     6.093902686
 H        0.588622169    18.272740832     4.782532177
 H       -0.735001611    13.416604821     9.801976640
 H       -0.827580249    12.899904992     8.093571940
 H       -2.313271063    13.348322152     8.983258480
 H       -2.204025957    17.368954250     8.351723565
 H       -3.660298898    18.256066715     6.553088581
 H       -3.323552669    14.509767856     4.445135061
 H       -1.954006405    13.603436332     6.268665216
 H       -4.760396730    18.050046666     4.539926916
 H       -4.475809237    15.334755575     3.020307534
 H       -7.458265564    15.567214531     3.944765300
 H       -9.408830288    14.115085383     3.806737188
 H       -9.527743889    14.606302770    -0.467794853
 H       -7.588375257    16.065159760    -0.378579737
 H      -11.086510118    13.005747793     2.625556076
 H      -11.138065253    13.385840427    -0.447165585
 H      -12.696616171    11.783711837     2.646465960
 H      -14.635708361    10.326191661     2.557796901
 H      -14.757939161    10.814902487    -1.764812346
 H      -12.815490966    12.272850901    -1.628290994
 H        2.735672790    15.002990944     5.860604459
 H        2.453141704    16.361441972     6.964491453
 H        0.332728630    14.148552811     6.569780429
 H        1.685373593    13.914387207     7.669652498
 H        0.794597038    15.325177194     9.297212224
 H        0.275682020    16.545378312     8.113473531
 H        2.267256273    -1.028459600     0.066127850
 H        2.271342240     0.566192268     0.859491942
 H        2.278145454     0.452239536    -0.920753846
 H      -16.731134287     6.989528204     1.087950273
 H      -15.585193099     7.818666435     2.171914694
 H      -15.037184041     7.224177969     0.585708766
 H      -17.432020677    10.331752271     2.345747534
 H      -18.008743175    11.109684099     0.852270872
 H      -18.626004676     9.502597021     1.314242221
 H      -16.094023431     8.582705738    -2.030148629
 H      -17.766434825     8.367210265    -1.459428846
 H      -17.188875418     9.987167605    -1.917737878
 H       -7.025654172    18.808251678     3.246741133
 H       -5.615601364    19.479259772     2.382963697
 H       -7.137105516    19.169206269     1.509692421
 H       -4.736138775    16.043928264    -0.081345307
 H       -5.488466138    17.601182932    -0.501846380
 H       -3.959342967    17.570493590     0.409572871
 H       -2.633627494    13.236064878    -2.335421258
 H       -4.257762535    12.611956530    -2.711735116
 H       -4.067502779    14.252294764    -2.040753631
 H       -5.716936062    12.225236979     1.334834842
 H       -6.017232510    13.596548642     0.246659142
 H       -6.248480408    11.936399591    -0.344080916
 H       -0.285207965    -0.354781127    -2.450329283
 H       -0.271892684    -1.910241437    -1.579254684
 H       -1.731566968    -0.886688063    -1.560038799
 H       -0.285375388    -0.366273235     2.447677270
 H       -1.706254519    -0.960457489     1.552941906
 H       -0.205959695    -1.919259665     1.577234151

