139   

Si        0.000000000     0.000000000     0.000000000
 C        1.869229963     0.000000000     0.000000000
 C       -0.641455396     1.731424981     0.000000000
 C        0.098921017     2.771671169    -0.571406969
 C       -0.391244610     4.077366453    -0.568141328
 C       -1.635086632     4.371769402    -0.003184390
 C       -2.378129783     3.327797976     0.563617828
 C       -1.889419492     2.023879200     0.565014566
 C       -2.189493351     5.721207631     0.023997566
 C       -1.583297647     6.810198389    -0.478598008
 C       -2.143076984     8.157611957    -0.448367977
 C       -3.388194221     8.442599327     0.118959995
 C       -3.886573011     9.744793437     0.126960129
 C       -3.154554306    10.790269037    -0.445519745
 C       -1.907083265    10.507693677    -1.016182967
 C       -1.406855347     9.207994262    -1.012286906
Si       -3.811421740    12.514618819    -0.436500849
 C       -3.144423339    13.406514976     1.017736296
 C       -2.311723373    12.867274577     1.918108777
 C       -1.779348674    13.581450611     3.080101049
 C       -0.912977846    12.901111116     3.950824976
 C       -0.381688615    13.529522284     5.063764575
 C       -0.738131410    14.861541554     5.365760804
 C       -1.603645733    15.544746802     4.496256368
 C       -2.096099756    14.911909948     3.359728589
 N       -0.169861476    15.459460410     6.511775591
 C       -0.293741264    14.687649144     7.769580063
 C       -0.398711506    16.902460605     6.687769948
 C       -1.595846719    13.889630864     7.944540401
 C       -2.855938743    14.772818636     7.904820996
 N       -4.087700715    14.008776153     7.629782508
 C       -4.420788190    12.997145537     8.550738610
 C       -4.155295595    13.186371295     9.924412587
 C       -4.476728350    12.201261511    10.843460688
 C       -5.115820494    11.017808044    10.445716830
 C       -5.407668495    10.846606369     9.090097119
 C       -5.077552632    11.817285892     8.152894145
 C       -4.244529011    13.681566071     6.201413160
 C       -5.431656723    10.011160064    11.459814974
 C       -6.038778981     8.844349708    11.204121065
Si       -6.435159902     7.583100666    12.470765044
 C       -5.869856508     8.176311923    14.124554339
 C       -4.727705971     7.649271602    14.737603214
 C       -4.319054008     8.111981824    15.986684111
 C       -5.034316575     9.118440099    16.647705901
 C       -6.171227118     9.648242602    16.029797537
 C       -6.584633701     9.184877452    14.782062464
 C       -4.566935656     9.569861956    17.954359667
 C       -5.161985600    10.522132874    18.692635558
 C       -4.694695168    10.973655077    19.999331654
 C       -3.558490968    10.444938495    20.618046452
 C       -3.147737481    10.906443914    21.868276979
 C       -3.861960163    11.913793187    22.525673162
 C       -5.001086072    12.445062369    21.907715312
 C       -5.412933474    11.977590505    20.662219499
Si       -3.321060359    12.527342053    24.181135829
 C       -1.471301469    12.328919616    24.366228208
 C       -3.757395758    14.336008059    24.364362279
 C       -4.198731215    11.527790782    25.493222392
 C       -8.282985866     7.306585276    12.505234110
 C       -5.578469867     5.986755707    12.011491105
 C       -3.287214407    13.408696903    -1.990989808
 C       -5.677100803    12.501156120    -0.329707099
 C       -0.631055089    -0.857545395    -1.535523171
 C       -0.603009985    -0.902176931     1.522441454
 H        1.077180115     2.603329275    -1.030225261
 H        0.207234845     4.869715707    -1.014319221
 H       -3.349501261     3.535136103     1.009007927
 H       -2.513720389     1.252024283     1.023776322
 H       -3.172400419     5.801177028     0.498507214
 H       -0.601345429     6.732317961    -0.954137392
 H       -3.981334679     7.645364031     0.563316787
 H       -4.864035434     9.905811342     0.590644002
 H       -1.290169067    11.285021533    -1.476616670
 H       -0.433958160     9.007989347    -1.457521852
 H       -3.485032606    14.449356561     1.103228916
 H       -1.958964440    11.827381101     1.851367674
 H       -0.642401179    11.864867064     3.740911255
 H        0.319004344    13.001193277     5.706385871
 H       -1.897025733    16.570441227     4.695279335
 H       -2.753299898    15.467529450     2.689619868
 H        0.271417000    17.275605253     7.482763781
 H       -1.434019402    17.171296499     6.949167013
 H       -0.115171138    17.435478420     5.762266098
 H       -3.903542394    14.526209326     5.576441574
 H       -5.316220582    13.529250371     5.981977723
 H       -3.679869530    12.788389333     5.885975715
 H       -3.692202160    14.105909625    10.270106494
 H       -4.240617472    12.357748235    11.897042743
 H       -5.905176754     9.936078842     8.753538246
 H       -5.322696399    11.642489661     7.110006848
 H       -5.118397129    10.306200656    12.472389447
 H       -6.342539093     8.569195308    10.182944372
 H       -4.126362396     6.866170409    14.267738073
 H       -3.432067873     7.684961902    16.450685645
 H       -6.744697211    10.431671471    16.521970133
 H       -7.481120175     9.638457770    14.348110439
 H       -3.664822486     9.067718955    18.316254842
 H       -6.064785742    11.023940774    18.331861538
 H       -2.982325008     9.663498065    20.125733023
 H       -2.252506190    10.452203052    22.302014274
 H       -5.598755532    13.233615015    22.373360231
 H       -6.302693534    12.400960742    20.199629139
 H        0.571782355    13.980901996     7.791388835
 H       -0.152611644    15.372064495     8.634276048
 H       -1.668915259    13.107374936     7.161274656
 H       -1.559112315    13.330018414     8.900064095
 H       -2.983057139    15.320533663     8.864633988
 H       -2.761472469    15.556971758     7.119680766
 H        2.267779739    -1.027781452     0.071255836
 H        2.269520777     0.571164785     0.857292773
 H        2.279408440     0.449301099    -0.921337019
 H       -1.116937641    12.760560155    25.319270727
 H       -0.930726196    12.840207861    23.549158015
 H       -1.169700637    11.266960653    24.353187703
 H       -3.322829992    14.936890647    23.544958492
 H       -4.849474963    14.497391570    24.353271955
 H       -3.373026790    14.745285064    25.315601330
 H       -3.959374105    10.452520911    25.406967096
 H       -3.910627888    11.854152818    26.507955172
 H       -5.295839116    11.627468708    25.408456098
 H       -8.830994020     8.245438803    12.701877966
 H       -8.648069510     6.906550387    11.542919321
 H       -8.563084350     6.586082576    13.294650930
 H       -4.488669595     6.129814734    11.898451376
 H       -5.739530705     5.209287076    12.779163668
 H       -5.957559415     5.590475001    11.052667466
 H       -2.190824929    13.536490658    -2.037780175
 H       -3.597800269    12.852541519    -2.893955944
 H       -3.738359391    14.415184220    -2.048108128
 H       -6.027454609    12.083106235     0.630912955
 H       -6.091710533    13.521365006    -0.414542906
 H       -6.118554827    11.894573628    -1.140914089
 H       -0.286434802    -0.346300942    -2.452436922
 H       -0.281882112    -1.903887111    -1.584794076
 H       -1.735513140    -0.871779049    -1.563093538
 H       -0.315261690    -0.365944494     2.444985453
 H       -1.701794467    -1.008943003     1.527857312
 H       -0.172769077    -1.917844288     1.581314247

