139   

Si        0.000000000     0.000000000     0.000000000
 C        1.869232741     0.000000000     0.000000000
 C       -0.646699624     1.728124491     0.000000000
 C        0.179615025     2.812453547     0.310131695
 C       -0.325332219     4.112496896     0.305489040
 C       -1.659992674     4.359717449    -0.025636507
 C       -2.486688089     3.271807068    -0.336816588
 C       -1.989814684     1.971536566    -0.316818803
 C       -2.228434160     5.702923006    -0.042892259
 C       -1.543423594     6.820725640     0.251507388
 C       -2.106328056     8.166132036     0.235947956
 C       -1.274710231     9.243465766     0.565389384
 C       -1.765874981    10.546750229     0.564745449
 C       -3.101289762    10.801105968     0.233419272
 C       -3.933902604     9.726895458    -0.100438581
 C       -3.438024572     8.424258009    -0.102147262
Si       -3.767252089    12.518064231     0.227521638
 C       -4.514642885    12.852373317    -1.410335121
 C       -4.118695220    13.824610510    -2.241813283
 C       -4.722192295    14.084909036    -3.550075149
 C       -4.214474261    15.136407188    -4.327705785
 C       -4.748915439    15.425163752    -5.572373585
 C       -5.855359115    14.696404920    -6.053593893
 C       -6.360324151    13.638993585    -5.283176677
 C       -5.772623569    13.320361260    -4.063613899
 N       -6.361625128    15.035646484    -7.336443751
 C       -6.773683644    16.451555548    -7.467801344
 C       -7.362931067    14.110049045    -7.895661946
 C       -7.869620187    16.902958826    -6.482370503
 C       -7.274489887    17.661181818    -5.278119809
 N       -8.216867743    17.851687075    -4.156711109
 C       -8.601359447    16.640980523    -3.516103790
 C       -7.588774118    15.873328964    -2.909545398
 C       -7.901422986    14.684769428    -2.270319977
 C       -9.232447264    14.258174769    -2.149617792
 C      -10.235643625    15.040724816    -2.725235935
 C       -9.932575955    16.216794776    -3.404133065
 C       -9.313000155    18.777197325    -4.490919345
 C       -9.513022244    12.992882545    -1.464462530
 C      -10.747693680    12.501611411    -1.298863263
Si      -11.221871064    10.943486867    -0.466617530
 C       -9.779034560    10.002095293     0.190479638
 C       -9.652954507     8.635280157    -0.088404337
 C       -8.570076364     7.909729315     0.399781609
 C       -7.596179126     8.525136533     1.196820808
 C       -7.727014483     9.887556831     1.479646748
 C       -8.803406922    10.620716192     0.980057430
 C       -6.485218014     7.713490216     1.678671844
 C       -5.470287298     8.160409075     2.437422305
 C       -4.370174951     7.322790188     2.905481551
 C       -4.281914488     5.962956688     2.596545756
 C       -3.215699249     5.193742267     3.061600586
 C       -2.202931066     5.775550814     3.829230173
 C       -2.283573676     7.141487494     4.132730520
 C       -3.355168463     7.904346656     3.676409715
Si       -0.783726672     4.775323506     4.454121593
 C       -0.895266857     3.015828732     3.838084615
 C        0.803970963     5.544617747     3.831890693
 C       -0.815734100     4.788559916     6.323035638
 C      -12.333040481    11.367094864     0.976525896
 C      -12.169751425     9.917154756    -1.710150134
 C       -5.130664812    12.644955130     1.501832027
 C       -2.428696449    13.757378860     0.629277356
 C       -0.609574452    -0.892469537    -1.524794721
 C       -0.627287132    -0.856208325     1.538762676
 H        1.235132011     2.684175667     0.564923040
 H        0.337874704     4.939767271     0.553197934
 H       -3.529616092     3.442938566    -0.596478235
 H       -2.682969324     1.162442200    -0.561888028
 H       -3.286111210     5.752988095    -0.316551148
 H       -0.488254144     6.770027107     0.535694787
 H       -0.234849981     9.062944451     0.829779354
 H       -1.069609427    11.346573185     0.829580743
 H       -4.987507674     9.863743364    -0.365620852
 H       -4.104827855     7.603225382    -0.361245048
 H       -5.333229090    12.165480291    -1.680138064
 H       -3.300291594    14.515810273    -2.000998816
 H       -3.377263686    15.727544968    -3.956502200
 H       -4.311334315    16.209393874    -6.185071149
 H       -7.213746319    13.059017839    -5.622309978
 H       -6.160293019    12.470732387    -3.498200310
 H       -7.557403106    14.386305160    -8.946197213
 H       -8.322766953    14.099507666    -7.355497974
 H       -6.947103912    13.086549463    -7.905142834
 H       -8.878398111    19.734651437    -4.826624522
 H       -9.898054462    18.990152655    -3.578500113
 H       -9.995446789    18.412067962    -5.273156543
 H       -6.552431363    16.206796484    -2.959509647
 H       -7.097187362    14.092242932    -1.826747366
 H      -11.278597483    14.731909336    -2.651821074
 H      -10.737883185    16.789495554    -3.852777271
 H       -8.611780190    12.478992472    -1.104101410
 H      -11.625607121    13.050929240    -1.681175135
 H      -10.383497196     8.095516052    -0.697302220
 H       -8.486217457     6.850906648     0.162952017
 H       -6.986870383    10.383978182     2.106175369
 H       -8.853625435    11.684203794     1.233827883
 H       -6.528179804     6.662220102     1.377156341
 H       -5.414724039     9.209118924     2.742825154
 H       -5.052862430     5.486882711     1.993841537
 H       -3.201862063     4.134637085     2.787392267
 H       -1.518034870     7.649877092     4.724731363
 H       -3.398666748     8.965293934     3.915354609
 H       -5.863456272    17.082927019    -7.358450396
 H       -7.117501532    16.606641258    -8.515095119
 H       -8.606441428    17.539892051    -7.001478943
 H       -8.441035539    16.025559211    -6.119434372
 H       -6.384088566    17.115761181    -4.885393827
 H       -6.910266689    18.663347845    -5.593159491
 H        2.266894909    -1.029442899    -0.050109434
 H        2.278740857     0.466779727     0.913087173
 H        2.270860796     0.551754478    -0.869002016
 H       -0.037478226     2.412068677     4.181169717
 H       -0.900162550     2.980032467     2.730115411
 H       -1.815013041     2.516620916     4.188983551
 H        0.831736073     5.556716633     2.727550684
 H        0.910133456     6.587577078     4.177801179
 H        1.686343752     4.982499156     4.183072741
 H       -1.756797501     4.355834626     6.708275111
 H        0.017989796     4.200530225     6.744131359
 H       -0.737415178     5.814624092     6.723024121
 H      -11.811317568    12.010225617     1.708395907
 H      -13.239099863    11.904580221     0.646899111
 H      -12.658321048    10.455737188     1.509519055
 H      -11.525430423     9.617454508    -2.556514882
 H      -12.578079747     8.998613034    -1.253898240
 H      -13.020638294    10.483283254    -2.129453663
 H       -5.986096447    11.995453864     1.240732075
 H       -4.772114885    12.348812145     2.502924317
 H       -5.510528583    13.680163728     1.574764515
 H       -1.601480140    13.713054414    -0.101536901
 H       -2.823273497    14.789432651     0.621591999
 H       -1.999476846    13.578557948     1.630818404
 H       -0.287655884    -0.373504180    -2.446103898
 H       -0.216573678    -1.923539487    -1.569717836
 H       -1.711402805    -0.956095457    -1.549024639
 H       -0.276040506    -0.345491010     2.453553047
 H       -1.731221289    -0.868379753     1.571645517
 H       -0.279987396    -1.903097552     1.586525235

