139   

Si        0.000000000     0.000000000     0.000000000
 C        1.869415815     0.000000000     0.000000000
 C       -0.635248197     1.733753829     0.000000000
 C        0.093316492     2.760261153    -0.610748149
 C       -0.387288032     4.069322777    -0.610215319
 C       -1.607375573     4.381987154    -0.004417328
 C       -2.337750878     3.352167410     0.602975488
 C       -1.859996468     2.043949644     0.604232625
 C       -2.150008349     5.736432518     0.020993347
 C       -1.552518175     6.810698881    -0.522097882
 C       -2.096386239     8.164575966    -0.495896210
 C       -3.317494145     8.474288785     0.111053506
 C       -3.800289852     9.781613163     0.113135833
 C       -3.077313058    10.808293016    -0.506889800
 C       -1.856777064    10.500810604    -1.117735600
 C       -1.371320973     9.194709614    -1.107840926
Si       -3.742781024    12.528680661    -0.487155870
 C       -3.660977369    13.193975800     1.217938380
 C       -3.187175021    12.517955678     2.272807056
 C       -3.123307647    13.052891861     3.634255094
 C       -2.603179060    12.239903749     4.654245222
 C       -2.520344654    12.696575308     5.958204498
 C       -2.929809352    14.008682286     6.278617743
 C       -3.454525168    14.822504746     5.262040178
 C       -3.565251134    14.335397307     3.963747372
 N       -2.825289736    14.426773974     7.624197159
 C       -1.494940371    14.246804657     8.249897335
 C       -3.464053326    15.706967998     7.968960186
 C       -0.283487688    14.456874595     7.326956239
 C       -0.230208678    15.867641716     6.714089793
 N        0.640043015    15.949156869     5.526564807
 C        2.002830438    15.655500929     5.713835560
 C        2.639832316    16.016504280     6.921040639
 C        3.981455315    15.733309631     7.118662791
 C        4.751422289    15.126849975     6.115871459
 C        4.126624937    14.799772390     4.909139145
 C        2.779789103    15.064267128     4.699166677
 C        0.003126397    15.403511485     4.315127897
 C        6.165047532    14.849313747     6.376541519
 C        6.992116602    14.274937906     5.493138275
Si        8.764249080    13.909590677     5.776102412
 C        9.757721799    14.822962443     4.517102159
 C        9.192828568    15.875713452     3.790414964
 C        9.946232075    16.563838070     2.839808179
 C       11.279222701    16.219969964     2.599721540
 C       11.843762326    15.167066281     3.332433465
 C       11.093859800    14.476257834     4.280727713
 C       12.104912164    16.912035484     1.615236416
 C       11.685960031    17.934061561     0.849792773
 C       12.509710941    18.627504940    -0.135147048
 C       13.842536717    18.284837560    -0.379538167
 C       14.593012857    18.975101826    -1.330759223
 C       14.028211584    20.030722919    -2.054868223
 C       12.693077245    20.375920764    -1.811587436
 C       11.943640387    19.680085458    -0.866181229
Si       15.024092889    20.943008453    -3.313760173
 C       16.816880426    21.003016286    -2.786667495
 C       14.873309144    20.044282171    -4.945100017
 C       14.387457517    22.691529982    -3.494442695
 C        9.317558534    14.446635457     7.476679351
 C        9.016373301    12.069270272     5.571771676
 C       -2.742252048    13.642956523    -1.604652091
 C       -5.522606673    12.512181142    -1.054288474
 C       -0.631760393    -0.856440908    -1.535776811
 C       -0.603949626    -0.902520068     1.521842497
 H        1.054161169     2.578049766    -1.100190877
 H        0.200200710     4.850142316    -1.090097615
 H       -3.290904186     3.573488567     1.079943606
 H       -2.473973558     1.283103701     1.094043154
 H       -3.114101293     5.832620738     0.529417463
 H       -0.588981937     6.714069173    -1.031155223
 H       -3.902029660     7.691744570     0.591739007
 H       -4.758129722     9.963834459     0.610453933
 H       -1.249250612    11.261594061    -1.615487564
 H       -0.418013646     8.975605677    -1.585302228
 H       -4.040695053    14.221962176     1.319151056
 H       -2.801535815    11.490505489     2.194387178
 H       -2.268102378    11.228235346     4.418898283
 H       -2.147008043    12.043460621     6.743843574
 H       -3.782321461    15.835345659     5.473412581
 H       -3.991664904    14.979079622     3.193302398
 H       -3.509013313    15.797256815     9.069009239
 H       -4.509481878    15.704237274     7.610910402
 H       -2.953462300    16.595332443     7.566169329
 H       -1.071922730    15.658060514     4.301486188
 H        0.084413010    14.307237200     4.227201090
 H        0.457668572    15.873472759     3.424821362
 H        2.080247230    16.516008811     7.706275341
 H        4.447009098    16.001644923     8.067413636
 H        4.702058847    14.328501078     4.110356239
 H        2.335750774    14.793862311     3.746012172
 H        6.490212827    15.163331901     7.377185559
 H        6.634462907    13.968631152     4.496608512
 H        8.154648496    16.192236090     3.938555570
 H        9.483003931    17.377653339     2.284534885
 H       12.880261710    14.883786914     3.160320723
 H       11.586462806    13.663295527     4.820800345
 H       13.128728928    16.535958233     1.531350130
 H       10.661629491    18.309493208     0.934449284
 H       14.307316441    17.470711649     0.173830974
 H       15.629528154    18.659370154    -1.478247541
 H       12.198583158    21.191607319    -2.346182201
 H       10.906532552    19.962114765    -0.693258900
 H       -1.413940363    14.913497667     9.135777435
 H       -1.473127716    13.202342223     8.646846740
 H        0.648777308    14.257265498     7.891055568
 H       -0.291013058    13.700957083     6.514924752
 H       -1.248250850    16.201989091     6.408959563
 H        0.118249959    16.610324045     7.465235743
 H        2.267928533    -1.027536952     0.074847079
 H        2.269855449     0.574260540     0.855116525
 H        2.279485994     0.446136189    -0.922891405
 H       17.420630979    21.601336758    -3.491957758
 H       17.264772365    19.994984712    -2.741583939
 H       16.924071967    21.460774585    -1.786475052
 H       15.242992451    19.005972681    -4.867722368
 H       13.821826321    19.994237723    -5.280739677
 H       15.453694440    20.547949353    -5.737863440
 H       14.392465476    23.221026107    -2.524425900
 H       15.013707470    23.274088645    -4.193377969
 H       13.353875508    22.713441045    -3.881760943
 H        9.174640483    15.533389936     7.620301958
 H        8.751113003    13.924881229     8.268251947
 H       10.389334497    14.232817916     7.636796119
 H        8.760511317    11.740193906     4.548316550
 H       10.063781814    11.778353322     5.762714883
 H        8.378661601    11.499959935     6.271980481
 H       -1.698032733    13.734535417    -1.254827965
 H       -2.718995785    13.257881959    -2.639780510
 H       -3.167166166    14.661971378    -1.639988373
 H       -6.157325129    11.906705555    -0.382525966
 H       -5.947832016    13.530841804    -1.082477747
 H       -5.611974638    12.084552039    -2.069500751
 H       -0.287629005    -0.344101366    -2.452297645
 H       -0.282234805    -1.902585544    -1.586417932
 H       -1.736207758    -0.871093298    -1.562786103
 H       -0.307273282    -0.371897484     2.444797533
 H       -1.703502675    -1.000425450     1.531724470
 H       -0.181820983    -1.921892369     1.575231682

