139   

Si        0.000000000     0.000000000     0.000000000
 C        1.869512135     0.000000000     0.000000000
 C       -0.629859328     1.735813695     0.000000000
 C        0.073869017     2.745361230    -0.666135318
 C       -0.398654056     4.057101308    -0.668287026
 C       -1.587917961     4.389210249    -0.012994563
 C       -2.293882633     3.376409486     0.648864288
 C       -1.822616833     2.065706922     0.655104608
 C       -2.119772755     5.747993643     0.010764980
 C       -1.538631520     6.805251833    -0.580809945
 C       -2.066447595     8.165086106    -0.559760552
 C       -3.254019832     8.506336861     0.092460521
 C       -3.720103416     9.821689387     0.085556668
 C       -3.006576823    10.824845164    -0.575814464
 C       -1.814052165    10.484329724    -1.230319353
 C       -1.350854833     9.172318088    -1.220848978
Si       -3.591533231    12.575485129    -0.606710289
 C       -2.217461385    13.726723522    -0.227243589
 C       -0.958062274    13.356975154     0.037474773
 C        0.134342481    14.281081101     0.339672062
 C        1.406578315    13.745785020     0.597656031
 C        2.479249920    14.569296769     0.889502544
 C        2.319025921    15.971381059     0.879468266
 C        1.049204043    16.509880413     0.617988178
 C       -0.029506494    15.666266039     0.373471728
 N        3.444568319    16.769958700     1.184257758
 C        4.677252133    16.435774637     0.436817612
 C        3.213706382    18.218529442     1.305828274
 C        4.484254546    16.034256120    -1.036269423
 C        3.749598328    17.113377996    -1.850855677
 N        3.559526827    16.751598500    -3.265715799
 C        2.670870255    15.686152631    -3.537117578
 C        1.414393849    15.656834897    -2.897609318
 C        0.522484781    14.625133937    -3.143927037
 C        0.829213268    13.602660097    -4.054468941
 C        2.064518756    13.649301650    -4.705024988
 C        2.971908133    14.674582808    -4.465052415
 C        4.817972520    16.771070639    -4.029976155
 C       -0.141119630    12.528648462    -4.287466527
 C        0.067575757    11.514346907    -5.137232647
Si       -1.057924553    10.119341979    -5.515338031
 C       -1.441772070    10.179440319    -7.320482930
 C       -1.269562213    11.361644033    -8.047386907
 C       -1.560474200    11.403341245    -9.410584235
 C       -2.037302099    10.269211542   -10.073597467
 C       -2.214130392     9.087409720    -9.341363279
 C       -1.921386998     9.041587658    -7.980758854
 C       -2.354990443    10.265520406   -11.497939162
 C       -2.231018979    11.327099849   -12.312539389
 C       -2.548965198    11.322422578   -13.736766368
 C       -3.022669236    10.187029392   -14.400011902
 C       -3.314156148    10.227084003   -15.763036365
 C       -3.145618214    11.408503051   -16.493257894
 C       -2.671618976    12.547776764   -15.830823788
 C       -2.374394246    12.502919190   -14.470932492
Si       -3.531535557    11.461572046   -18.297897517
 C       -4.911411513    10.263537454   -18.692651947
 C       -4.067469738    13.184084095   -18.789270118
 C       -1.990797943    10.985215084   -19.242126731
 C       -0.181765052     8.529854169    -5.071928682
 C       -2.686641291    10.219925177    -4.612205868
 C       -4.216410168    12.955032485    -2.326841749
 C       -4.951298758    12.845778090     0.643809785
 C       -0.633473049    -0.852771265    -1.537226577
 C       -0.605473298    -0.905520979     1.519304031
 H        1.008763822     2.547187970    -1.197726627
 H        0.170652224     4.824863242    -1.189383324
 H       -3.222329895     3.613200221     1.165516085
 H       -2.415612892     1.319035748     1.190453709
 H       -3.058236201     5.862725834     0.561158753
 H       -0.600286732     6.687925209    -1.131235967
 H       -3.828958374     7.743574087     0.614266067
 H       -4.653980725    10.026843663     0.615547972
 H       -1.212406916    11.225373180    -1.771335778
 H       -0.420781568     8.928984367    -1.732630301
 H       -2.511142020    14.787634006    -0.234337964
 H       -0.641071615    12.303502847     0.069751801
 H        1.551516621    12.664410076     0.579048809
 H        3.447422424    14.137735340     1.130370728
 H        0.890599354    17.583130727     0.604628694
 H       -1.011142782    16.104353044     0.189572449
 H        4.118188898    18.692816273     1.725379398
 H        2.399599814    18.398592348     2.031439698
 H        2.963193732    18.720502203     0.358602446
 H        5.382862876    17.686376624    -3.785072258
 H        4.582993041    16.818559149    -5.109125397
 H        5.468285473    15.901563145    -3.844258819
 H        1.144542647    16.440331893    -2.192078031
 H       -0.432769644    14.610644842    -2.613730332
 H        2.333293006    12.870138348    -5.420152198
 H        3.920484833    14.665156102    -4.991537262
 H       -1.062220265    12.636318862    -3.701172193
 H        1.010893189    11.448229898    -5.707536736
 H       -0.902401969    12.281832306    -7.580080084
 H       -1.413574201    12.333942634    -9.955976138
 H       -2.584721835     8.193501345    -9.839345822
 H       -2.077802780     8.092022302    -7.461543027
 H       -2.716009476     9.307344505   -11.883181913
 H       -1.870533394    12.285776191   -11.927492886
 H       -3.167648798     9.256361005   -13.854154855
 H       -3.679426370     9.306090662   -16.225767622
 H       -2.520813278    13.498867126   -16.348814841
 H       -2.004982233    13.398542782   -13.974481947
 H        5.387125367    17.288548915     0.504428081
 H        5.160920300    15.590054932     0.983928188
 H        5.470905013    15.820322927    -1.486321603
 H        3.918275559    15.081512003    -1.105025600
 H        2.747491166    17.312691034    -1.404012620
 H        4.304331657    18.076900033    -1.812164737
 H        2.268789862    -1.027820059     0.065146800
 H        2.269110796     0.566588965     0.860669981
 H        2.279508133     0.455620235    -0.918189899
 H       -5.202609856    10.326656188   -19.756210776
 H       -5.811724859    10.477971596   -18.088645190
 H       -4.616799109     9.218516448   -18.492799789
 H       -4.930437961    13.520909203   -18.186693232
 H       -3.256506623    13.920490407   -18.651930189
 H       -4.369505601    13.220281103   -19.851043733
 H       -1.654022075     9.967600866   -18.974282197
 H       -2.164576360    11.003964482   -20.332241580
 H       -1.156307094    11.675787663   -19.024204846
 H        0.719263796     8.379214519    -5.692266775
 H        0.138738287     8.532337380    -4.014719184
 H       -0.838072326     7.653435316    -5.217212053
 H       -3.164141456    11.207412742    -4.741619448
 H       -3.395810006     9.460477875    -4.989151936
 H       -2.568639302    10.039624509    -3.527414560
 H       -3.415495896    12.845763202    -3.081753461
 H       -5.036429634    12.272229434    -2.612775138
 H       -4.601742310    13.987220162    -2.398176522
 H       -4.618490102    12.570567297     1.661571630
 H       -5.266022418    13.903992184     0.676042535
 H       -5.846111421    12.242978461     0.409292917
 H       -0.287351015    -0.340701108    -2.453004100
 H       -0.287225600    -1.899990422    -1.588443066
 H       -1.738002249    -0.864025224    -1.564398501
 H       -0.315082866    -0.374166383     2.443755172
 H       -1.704701435    -1.008408731     1.523986240
 H       -0.179175657    -1.923136391     1.573660887

