139   

Si        0.000000000     0.000000000     0.000000000
 C        1.869377588     0.000000000     0.000000000
 C       -0.630583646     1.735459371     0.000000000
 C        0.057299108     2.739795627    -0.690169970
 C       -0.415932081     4.051367310    -0.692354112
 C       -1.591257414     4.387856822    -0.014713244
 C       -2.281725078     3.379985614     0.670924532
 C       -1.808900952     2.069862566     0.678514893
 C       -2.124693032     5.745902062     0.010976680
 C       -1.560472303     6.802032049    -0.599078995
 C       -2.096544011     8.159055353    -0.571453750
 C       -3.273152008     8.489836481     0.108347426
 C       -3.750454588     9.798770987     0.109399953
 C       -3.062599532    10.807874417    -0.576988450
 C       -1.886425392    10.479820563    -1.258892934
 C       -1.409221361     9.170366475    -1.253856605
Si       -3.727837912    12.527807563    -0.550830057
 C       -3.748516450    13.155832067     1.171216886
 C       -3.339070228    12.459160353     2.239352515
 C       -3.358854228    12.968339371     3.612263133
 C       -2.900914213    12.135370936     4.645781500
 C       -2.898556114    12.568386478     5.961152831
 C       -3.397428554    13.845823621     6.286784838
 C       -3.854263567    14.681296785     5.257591884
 C       -3.812480851    14.248306473     3.935972588
 N       -3.367773590    14.232208329     7.654125777
 C       -4.192524364    13.374252834     8.535645621
 C       -3.576420634    15.667509256     7.916029025
 C       -5.675123082    13.284342754     8.131147682
 C       -5.978592161    11.996283241     7.338418071
 N       -7.112562035    12.127213881     6.405838406
 C       -8.334420379    12.556604479     6.954327100
 C       -8.719095042    12.097942110     8.233432477
 C       -9.917440755    12.507114197     8.793641525
 C      -10.798349845    13.343940850     8.092241229
 C      -10.429711502    13.771745385     6.814402074
 C       -9.223822565    13.384114038     6.243763909
 C       -6.723269725    12.697177254     5.106128696
 C      -12.051146523    13.744968310     8.733430203
 C      -12.970305909    14.538382803     8.167189424
Si      -14.541433544    15.047561714     8.958318708
 C      -14.667434579    14.307317585    10.643851537
 C      -14.693838892    12.912096483    10.780377370
 C      -14.788381033    12.327914755    12.040055730
 C      -14.855443196    13.119984609    13.194724147
 C      -14.826609897    14.509795014    13.055488683
 C      -14.733027490    15.098416488    11.793888394
 C      -14.953704034    12.460251817    14.492571108
 C      -15.025860892    13.099292133    15.672546260
 C      -15.124103273    12.438183518    16.969846528
 C      -15.152829195    11.047544119    17.107350699
 C      -15.247514766    10.457575435    18.367216876
 C      -15.307289812    11.247108537    19.520837088
 C      -15.277779044    12.640694544    19.385813466
 C      -15.190524779    13.227361988    18.125603411
Si      -15.432659429    10.464778830    21.188616633
 C      -14.554920314     8.814021402    21.186764006
 C      -14.644163135    11.568392944    22.475362835
 C      -17.241368472    10.219401168    21.587966087
 C      -14.579886759    16.914096778     9.043853707
 C      -15.972674222    14.438919670     7.922341016
 C       -2.671237047    13.671935243    -1.581700187
 C       -5.474512563    12.516252543    -1.213167182
 C       -0.633176900    -0.852845585    -1.537208428
 C       -0.605170628    -0.906647988     1.518784306
 H        0.980372262     2.537631752    -1.240620369
 H        0.141190089     4.815377157    -1.231828098
 H       -3.199227097     3.620011238     1.205218623
 H       -2.389460086     1.327373485     1.233058806
 H       -3.052368702     5.860994474     0.579800958
 H       -0.633872133     6.686844344    -1.168718560
 H       -3.827420062     7.721712021     0.644936145
 H       -4.675776987     9.997026575     0.660075733
 H       -1.307728725    11.226485444    -1.809578821
 H       -0.491150903     8.934591947    -1.788907135
 H       -4.132502441    14.182782479     1.269515044
 H       -2.946293190    11.434227048     2.164875209
 H       -2.527055808    11.138109776     4.408964475
 H       -2.499097239    11.931378688     6.747723225
 H       -4.242515880    15.671403109     5.477345177
 H       -4.153463393    14.921211907     3.148278951
 H       -3.318104500    15.874028433     8.969828234
 H       -4.604331472    16.018822832     7.735609337
 H       -2.881640830    16.259484824     7.294707389
 H       -5.779148720    12.234478381     4.761575487
 H       -6.570815753    13.788404317     5.128855095
 H       -7.491541442    12.451449339     4.352047277
 H       -8.073380920    11.421647948     8.786049682
 H      -10.185449723    12.159581480     9.792342937
 H      -11.096362107    14.422591324     6.247266827
 H       -8.974926313    13.743263079     5.250338113
 H      -12.169579816    13.329812400     9.745323289
 H      -12.827410776    14.944781792     7.154391432
 H      -14.644190593    12.243312654     9.915003086
 H      -14.809360752    11.243154188    12.126978638
 H      -14.876708275    15.148231549    13.935547439
 H      -14.712980466    16.190698314    11.748653823
 H      -14.966526252    11.367111631    14.449911097
 H      -15.013594908    14.192332554    15.715949823
 H      -15.102765677    10.410623154    16.225971911
 H      -15.267591819     9.365020868    18.410006864
 H      -15.320686562    13.307983609    20.251036706
 H      -15.170964146    14.312450470    18.041409871
 H       -3.726062375    12.363840938     8.557971737
 H       -4.101391468    13.766820774     9.573411874
 H       -6.322512438    13.332023421     9.026612302
 H       -5.960565772    14.169991884     7.530768350
 H       -5.085143958    11.676350512     6.753633041
 H       -6.196251607    11.155508004     8.035364720
 H        2.268328867    -1.027239010     0.075676390
 H        2.269547868     0.575272185     0.854621944
 H        2.279582447     0.446241189    -0.922721366
 H      -14.546165020     8.365164282    22.195960740
 H      -13.504015797     8.920430557    20.861867298
 H      -15.041910860     8.091394734    20.508991398
 H      -13.597014748    11.804071734    22.212370352
 H      -15.185047216    12.524887838    22.582029336
 H      -14.635753273    11.082030257    23.467060486
 H      -17.734099522     9.573000906    20.839519053
 H      -17.375389033     9.747668491    22.577185900
 H      -17.784881788    11.181312900    21.599587756
 H      -13.726482302    17.307795944     9.625335062
 H      -14.524493559    17.362325551     8.035800847
 H      -15.508883386    17.277515207     9.517401703
 H      -15.956036166    13.339056822     7.817853159
 H      -16.940645160    14.713831770     8.378567885
 H      -15.947378839    14.869256820     6.905850521
 H       -1.641978981    13.738516324    -1.184055623
 H       -2.607153914    13.327091243    -2.629126724
 H       -3.084210067    14.696531525    -1.595614793
 H       -6.136835530    11.880789574    -0.597924290
 H       -5.908926898    13.531154923    -1.229414044
 H       -5.505226293    12.123290760    -2.245763193
 H       -0.289264727    -0.339581786    -2.453166957
 H       -0.284973644    -1.899387729    -1.589596779
 H       -1.737766891    -0.866311531    -1.563211328
 H       -0.315236500    -0.375976738     2.443736307
 H       -1.704321640    -1.010684240     1.523375759
 H       -0.178116375    -1.924024575     1.572470118

