139   

Si        0.000000000     0.000000000     0.000000000
 C        1.869576901     0.000000000     0.000000000
 C       -0.639648887     1.731040075     0.000000000
 C        0.176420762     2.802639239     0.376592957
 C       -0.319593515     4.105476503     0.372058579
 C       -1.633634492     4.369773315    -0.024362192
 C       -2.449320881     3.295345372    -0.401664409
 C       -1.962023397     1.990969077    -0.382477784
 C       -2.188651178     5.719091034    -0.042521738
 C       -1.504451176     6.819326578     0.313186348
 C       -2.040273740     8.175340647     0.302090576
 C       -1.202643814     9.224522167     0.701649863
 C       -1.663467136    10.538057593     0.709875921
 C       -2.973076259    10.833178866     0.312508021
 C       -3.811813918     9.786937355    -0.086665850
 C       -3.349234653     8.471424991    -0.088178992
Si       -3.572644782    12.574247819     0.327133667
 C       -4.737458237    12.846253787    -1.060736036
 C       -4.554491495    13.740085966    -2.041341417
 C       -5.488691150    13.953499314    -3.148369692
 C       -5.177728218    14.923900139    -4.112713620
 C       -6.026232203    15.166156528    -5.180160131
 C       -7.245283188    14.467145296    -5.286577426
 C       -7.553415164    13.486232592    -4.333548794
 C       -6.663284150    13.212558451    -3.300466416
 N       -8.075309000    14.756855722    -6.402650608
 C       -8.486130158    16.175971764    -6.496262191
 C       -9.202483304    13.832646066    -6.618828680
 C       -9.322962398    16.692172404    -5.309189236
 C       -8.460792243    17.457717142    -4.283875240
 N       -9.081133674    17.602600574    -2.948057206
 C       -9.183786988    16.351193439    -2.263764617
 C       -7.991169511    15.812325504    -1.750647961
 C       -8.011717841    14.602218131    -1.075035417
 C       -9.219473751    13.930002955    -0.835383409
 C      -10.402811453    14.487392712    -1.325332841
 C      -10.392773957    15.683294973    -2.036764122
 C      -10.320092554    18.399621957    -2.979060831
 C       -9.187919249    12.652177788    -0.115925250
 C      -10.284992737    11.936602595     0.160568571
Si      -10.395635661    10.337906378     1.043665868
 C       -8.769499114     9.671789105     1.601231757
 C       -8.495131939     8.309011698     1.436723517
 C       -7.276079763     7.773633258     1.847261117
 C       -6.310540703     8.580864964     2.455473265
 C       -6.590256583     9.942371079     2.627817693
 C       -7.802085813    10.484596608     2.204267844
 C       -5.023796808     8.052558467     2.897267099
 C       -4.659705643     6.764573769     2.777177946
 C       -3.382554935     6.208769643     3.208910374
 C       -2.383605464     6.982254459     3.806705399
 C       -1.178815888     6.403240106     4.202200498
 C       -0.950605336     5.034831493     4.013243698
 C       -1.951403235     4.258006909     3.419763543
 C       -3.153790385     4.839340368     3.024540382
Si        0.650719832     4.287990044     4.543677333
 C        0.870875202     4.556642367     6.379548813
 C        0.673215725     2.457227566     4.168075490
 C        2.033177187     5.121962215     3.598156530
 C      -11.456597158    10.588081601     2.562456482
 C      -11.227921907     9.133775062    -0.121683108
 C       -4.516813200    12.886736781     1.911073977
 C       -2.129368310    13.757723076     0.222582825
 C       -0.612145845    -0.898716130    -1.519528962
 C       -0.625303701    -0.846533276     1.545248110
 H        1.216967064     2.662032727     0.682081402
 H        0.331655503     4.923345399     0.677242046
 H       -3.476019023     3.479478434    -0.711718663
 H       -2.646412684     1.192752030    -0.680898282
 H       -3.228813034     5.788163852    -0.371181368
 H       -0.466070550     6.742783369     0.651369500
 H       -0.181337238     9.012703183     1.011737611
 H       -0.963672915    11.313429516     1.031953091
 H       -4.845606204     9.956760318    -0.403520184
 H       -4.021307830     7.672006196    -0.395274691
 H       -5.625939827    12.194548330    -1.039389585
 H       -3.674085656    14.394598777    -2.091169260
 H       -4.250112685    15.490223074    -4.029685225
 H       -5.750948477    15.889767607    -5.943426814
 H       -8.485825045    12.931451962    -4.384321724
 H       -6.910487527    12.421942266    -2.588924961
 H       -9.664844294    14.057645212    -7.595345711
 H       -9.984490891    13.878954991    -5.844727293
 H       -8.818510886    12.798223361    -6.675050896
 H      -10.075169002    19.409482997    -3.351747024
 H      -10.701210783    18.514852488    -1.949078966
 H      -11.121795556    17.983182058    -3.606307706
 H       -7.051846949    16.343082259    -1.902732616
 H       -7.072870539    14.187583769    -0.699396613
 H      -11.354974895    13.984120318    -1.157612524
 H      -11.326599763    16.085988701    -2.416541898
 H       -8.176550371    12.331381437     0.166535501
 H      -11.281079484    12.299699801    -0.149824720
 H       -9.210388604     7.620988079     0.977441821
 H       -7.085734160     6.712699126     1.695135703
 H       -5.851532381    10.583210341     3.107940938
 H       -7.966272021    11.553881352     2.367950327
 H       -4.346673639     8.789005522     3.338128686
 H       -5.341304256     6.034526735     2.328890053
 H       -2.537771867     8.049098861     3.957766764
 H       -0.432593644     7.058502432     4.659076157
 H       -1.826856640     3.186261557     3.239035691
 H       -3.917443272     4.219034551     2.559336457
 H       -7.567930659    16.791806340    -6.624034530
 H       -9.058537683    16.295010899    -7.443837769
 H      -10.135148409    17.342874666    -5.676830932
 H       -9.826855957    15.843584561    -4.805016593
 H       -7.482187075    16.939422529    -4.145418201
 H       -8.225914268    18.476949015    -4.659720778
 H        2.267359413    -1.028557439    -0.062368417
 H        2.279793364     0.456560175     0.917895501
 H        2.270359735     0.561959743    -0.862946666
 H        1.811377819     4.107735840     6.743175728
 H        0.041743683     4.101665725     6.951424376
 H        0.893630096     5.631140330     6.632699225
 H       -0.109853275     1.918515787     4.730221138
 H        0.500337378     2.269840608     3.091563783
 H        1.643558333     2.003070521     4.433236959
 H        2.038260822     6.212667836     3.769425584
 H        3.019331820     4.731426484     3.903039060
 H        1.930147354     4.956665489     2.510654696
 H      -11.005713065    11.327879057     3.248803674
 H      -12.465466016    10.949771627     2.298343529
 H      -11.574481192     9.644814688     3.125441730
 H      -10.586403868     8.914549432    -0.994511698
 H      -11.459274989     8.176398347     0.376475081
 H      -12.179240421     9.542506559    -0.506359033
 H       -5.460087676    12.311189266     1.937766081
 H       -3.921481126    12.603444279     2.796164165
 H       -4.779025760    13.955415534     2.011630608
 H       -1.510114323    13.558224764    -0.670618831
 H       -2.472616260    14.806019615     0.164088983
 H       -1.472471932    13.678076051     1.106007999
 H       -0.300559999    -0.378181570    -2.443505786
 H       -0.211182124    -1.926604694    -1.566189235
 H       -1.713502925    -0.971806927    -1.536771750
 H       -0.270666771    -0.332034904     2.456819102
 H       -1.729220911    -0.856166561     1.580319252
 H       -0.280416440    -1.893867056     1.597233534

