139   

Si        0.000000000     0.000000000     0.000000000
 C        1.869074352     0.000000000     0.000000000
 C       -0.662509050     1.722413052     0.000000000
 C        0.180181640     2.835479524    -0.067178210
 C       -0.347983094     4.126858428    -0.065515767
 C       -1.727885735     4.334187079     0.003351707
 C       -2.571438877     3.216622305     0.069867115
 C       -2.047676763     1.927031423     0.067487658
 C       -2.326646879     5.664834016     0.007953425
 C       -1.636131344     6.816216674    -0.052083819
 C       -2.238877433     8.145413315    -0.047241470
 C       -1.401440341     9.266317102    -0.114439952
 C       -1.932679081    10.554343571    -0.112546371
 C       -3.315736809    10.750313310    -0.034004349
 C       -4.155014095     9.632161730     0.034805998
 C       -3.620925759     8.344904926     0.025188929
Si       -4.055104192    12.442465960    -0.029025871
 C       -5.448600238    12.416677590     1.161623723
 C       -6.731063919    12.674367129     0.874717380
 C       -7.812853379    12.641338352     1.862949807
 C       -9.120302464    12.927836906     1.453575780
 C      -10.178712704    12.909008929     2.354186691
 C       -9.955588186    12.562236993     3.696393626
 C       -8.641572311    12.273267442     4.113566573
 C       -7.591248806    12.331874106     3.210318015
 N      -10.978186990    12.518017874     4.680225515
 C      -12.306986925    13.014093632     4.270804108
 C      -11.018165219    11.228368682     5.403552421
 C      -13.153707579    13.401753222     5.498192295
 C      -12.492014348    14.495093089     6.362280385
 N      -12.438512777    15.845069185     5.770461812
 C      -11.392787253    16.048124648     4.832289065
 C      -10.069878406    15.872815937     5.287556541
 C       -9.006599552    16.056284553     4.421007611
 C       -9.219659383    16.456450160     3.092134140
 C      -10.529785950    16.657037605     2.655310840
 C      -11.609894877    16.466897875     3.511828994
 C      -13.759580510    16.368445587     5.388504128
 C       -8.058248776    16.635527165     2.218939792
 C       -8.137961443    17.013565338     0.936606694
Si       -6.706378699    17.245678193    -0.178841168
 C       -6.905992761    16.082143134    -1.598077494
 C       -7.866628952    15.065065723    -1.545820921
 C       -8.022357546    14.184191235    -2.612701650
 C       -7.219893799    14.296233687    -3.755403941
 C       -6.259202285    15.311201868    -3.803897270
 C       -6.101734895    16.195129331    -2.736906667
 C       -7.420621823    13.349706625    -4.847256120
 C       -6.722257550    13.345903172    -5.995242878
 C       -6.924586436    12.398219608    -7.086211827
 C       -7.885522560    11.384658768    -7.035206820
 C       -8.045519363    10.499910822    -8.100987409
 C       -7.252852916    10.615432592    -9.247906020
 C       -6.289881019    11.631076806    -9.301862296
 C       -6.126523080    12.508213311    -8.232471041
Si       -7.462001091     9.445588315   -10.661125775
 C       -9.223280785     8.821648905   -10.723379083
 C       -7.070268439    10.312601343   -12.270519115
 C       -6.291333857     8.010894069   -10.412601043
 C       -6.712251520    19.006879580    -0.800945734
 C       -5.101077177    16.873788227     0.696170752
 C       -2.807576462    13.710895841     0.541964022
 C       -4.618316988    12.837637933    -1.759607398
 C       -0.617818190    -0.874577930    -1.532054785
 C       -0.612713605    -0.880765105     1.530893760
 H        1.267686504     2.736899207    -0.121802855
 H        0.329979397     4.976920656    -0.118917490
 H       -3.649627445     3.356213901     0.123650421
 H       -2.755144862     1.094746048     0.120350142
 H       -3.419287801     5.673722793     0.065018205
 H       -0.543838763     6.808972006    -0.109863045
 H       -0.323004372     9.133048412    -0.171112125
 H       -1.231289882    11.390705598    -0.170218945
 H       -5.244217578     9.727531561     0.100275197
 H       -4.293606904     7.490765058     0.077014497
 H       -5.137542715    12.156255707     2.186462678
 H       -7.071098384    12.941259200    -0.136114986
 H       -9.319560883    13.175082268     0.410325386
 H      -11.176386553    13.145395241     1.998379598
 H       -8.449657941    12.027225512     5.154655886
 H       -6.579764518    12.122300045     3.560263235
 H      -12.017977384    11.023162436     5.813100451
 H      -10.316221541    11.289068292     6.254874657
 H      -10.730020642    10.370883978     4.774087150
 H      -14.444186372    16.276124373     6.248787688
 H      -14.218157925    15.865239128     4.523322556
 H      -13.665985138    17.445819474     5.161205953
 H       -9.890070721    15.577561441     6.319168074
 H       -7.990282951    15.889747062     4.778806339
 H      -10.720424045    16.967069767     1.627292396
 H      -12.615557561    16.628467919     3.138517298
 H       -7.104802285    16.415464138     2.718118005
 H       -9.110103248    17.225115147     0.464170698
 H       -8.521276654    14.933513293    -0.676328211
 H       -8.776292003    13.401137880    -2.556261886
 H       -5.624459806    15.419892071    -4.681197345
 H       -5.335076615    16.968682793    -2.831552270
 H       -8.206798199    12.609317103    -4.671854969
 H       -5.935247521    14.085220793    -6.171513371
 H       -8.518959817    11.276041421    -6.156615272
 H       -8.811606585     9.726010264    -8.000722808
 H       -5.641840407    11.769999653   -10.171671563
 H       -5.370415993    13.289052572    -8.292148767
 H      -12.161900791    13.927373197     3.643320297
 H      -12.859030566    12.274392864     3.651666340
 H      -14.150101506    13.733586929     5.152942704
 H      -13.338136286    12.515200991     6.133624446
 H      -13.039859527    14.587219887     7.327708635
 H      -11.453086236    14.172773160     6.615525498
 H        2.266584754    -1.030738220     0.003405146
 H        2.273664282     0.512838148     0.890844779
 H        2.274979689     0.506766473    -0.893568602
 H       -9.388421112     8.181419461   -11.608186087
 H       -9.942548610     9.658570989   -10.780743231
 H       -9.477802363     8.222805583    -9.831490634
 H       -7.695895653    11.214128744   -12.401178484
 H       -6.013951466    10.629873937   -12.318944991
 H       -7.256068636     9.651614545   -13.135674514
 H       -6.502948840     7.478177167    -9.467806108
 H       -6.371540711     7.278200157   -11.234624531
 H       -5.241015726     8.351390472   -10.368933522
 H       -7.635088883    19.231985024    -1.365287823
 H       -6.654217573    19.725733057     0.036384236
 H       -5.857380143    19.205255800    -1.470243283
 H       -5.138977728    15.880145916     1.182983672
 H       -4.248903986    16.871383958    -0.005640111
 H       -4.887494252    17.621037845     1.480882733
 H       -2.401554196    13.461128724     1.537763766
 H       -1.958158749    13.783935680    -0.159319530
 H       -3.265480581    14.714783443     0.610319865
 H       -5.325543977    12.078429019    -2.141720711
 H       -5.133135861    13.817747718    -1.805104783
 H       -3.769567028    12.876688931    -2.465040479
 H       -0.268150260    -0.367702162    -2.449867874
 H       -0.261021239    -1.918648682    -1.571297795
 H       -1.721357115    -0.896569631    -1.568569436
 H       -0.270188676    -0.369616620     2.449055115
 H       -1.715815778    -0.915863870     1.565406024
 H       -0.244195964    -1.920760998     1.571169942

