139   

Si        0.000000000     0.000000000     0.000000000
 C        1.869437221     0.000000000     0.000000000
 C       -0.636558332     1.733003912     0.000000000
 C        0.071832030     2.751946547    -0.646244358
 C       -0.408816171     4.060927758    -0.646340001
 C       -1.611063441     4.380556396    -0.009098742
 C       -2.321773186     3.358050473     0.632799838
 C       -1.842568690     2.050405411     0.637162034
 C       -2.153443556     5.735048415     0.017247642
 C       -1.572839415     6.803768693    -0.554392865
 C       -2.117196472     8.157637871    -0.526750829
 C       -3.320329817     8.472330439     0.112075938
 C       -3.804980046     9.779509447     0.114719955
 C       -3.090349707    10.802879445    -0.517044644
 C       -1.884992459    10.491732048    -1.157628407
 C       -1.407300124     9.183352990    -1.164271345
Si       -3.731625630    12.533363246    -0.513729205
 C       -2.341135618    13.671170676    -0.868393748
 C       -2.273158069    14.513827135    -1.907611545
 C       -1.146871306    15.412356888    -2.164912514
 C       -1.190021222    16.250879768    -3.288485883
 C       -0.150769005    17.119224788    -3.576865462
 C        1.005388644    17.145013023    -2.764293585
 C        1.050339481    16.302042771    -1.636342467
 C       -0.020599721    15.469958517    -1.339137015
 N        2.046013514    18.029528924    -3.071164417
 C        2.327003690    18.302198558    -4.489294813
 C        3.228825537    18.021309658    -2.201691016
 C        2.517864615    17.060874990    -5.380656603
 C        3.884784266    16.368570172    -5.235869085
 N        5.064368719    17.139889147    -5.678507727
 C        5.622061335    17.994253547    -4.693133131
 C        6.149774483    17.383506445    -3.537265853
 C        6.709651626    18.158157526    -2.534952967
 C        6.791496105    19.553578150    -2.661732704
 C        6.294428375    20.149908111    -3.822957953
 C        5.728558344    19.385202930    -4.837586520
 C        4.924323627    17.712911586    -7.025610471
 C        7.393256057    20.325614566    -1.571530220
 C        7.524510629    21.658169902    -1.581882172
Si        8.269223309    22.665813497    -0.243821106
 C        6.978374142    23.841761916     0.351470496
 C        5.622982631    23.534510462     0.190389582
 C        4.639868941    24.416472176     0.636809440
 C        4.988334155    25.618023778     1.260371212
 C        6.346752908    25.920287645     1.424626194
 C        7.331727414    25.043277173     0.976697636
 C        3.993067752    26.570212633     1.742940161
 C        2.663592896    26.399392866     1.646400498
 C        1.665963403    27.349414939     2.127840731
 C        2.008838425    28.553748806     2.748784126
 C        1.021672327    29.432427971     3.193644042
 C       -0.333076970    29.121291327     3.035074213
 C       -0.678955488    27.914616401     2.414202277
 C        0.308914141    27.042315369     1.963889678
Si       -1.641487728    30.283672681     3.623566048
 C       -1.025875798    31.244656090     5.104414153
 C       -2.050598048    31.460458227     2.230961772
 C       -3.171596026    29.328780376     4.115346677
 C        8.827611820    21.611402792     1.191208399
 C        9.722019245    23.596320193    -0.958693628
 C       -5.080322092    12.667751972    -1.798191051
 C       -4.412219657    12.960768530     1.173325294
 C       -0.631049809    -0.855327175    -1.536972658
 C       -0.603565480    -0.906183846     1.519942138
 H        1.016923464     2.563836805    -1.163187544
 H        0.163733376     4.836431832    -1.152135332
 H       -3.260477209     3.584820704     1.135116807
 H       -2.440215414     1.295915504     1.156047495
 H       -3.102328332     5.836546985     0.552413931
 H       -0.624359783     6.702907787    -1.090069465
 H       -3.891378672     7.693722419     0.614318118
 H       -4.752248996     9.964368353     0.628587316
 H       -1.286571428    11.253801632    -1.668148926
 H       -0.469774515     8.959206460    -1.669692748
 H       -1.527140012    13.615071933    -0.127699088
 H       -3.069978078    14.593843310    -2.659015829
 H       -2.062909554    16.231085457    -3.941817094
 H       -0.230936176    17.784858945    -4.430912196
 H        1.918417117    16.292604589    -0.985251870
 H        0.033096000    14.837921970    -0.450896283
 H        3.933156056    18.816021619    -2.511925126
 H        3.775454782    17.064204940    -2.206850181
 H        2.922305449    18.256281109    -1.165717678
 H        4.636859599    16.909086801    -7.726018525
 H        5.905854115    18.096890579    -7.357637800
 H        4.184441308    18.524555519    -7.103593274
 H        6.124419457    16.299233981    -3.445019081
 H        7.107028397    17.672752761    -1.642946341
 H        6.351382319    21.232662150    -3.946998221
 H        5.358623560    19.879157849    -5.731277055
 H        7.731406766    19.701536171    -0.734003838
 H        7.177797091    22.257680990    -2.439872683
 H        5.289811085    22.607395671    -0.288573087
 H        3.591673132    24.157620204     0.496060204
 H        6.638808123    26.850886905     1.907662392
 H        8.374777053    25.332722551     1.129997651
 H        4.407622133    27.469405172     2.207889369
 H        2.250029440    25.499135904     1.181590098
 H        3.055703030    28.816862055     2.889679058
 H        1.352146437    30.360015752     3.669349183
 H       -1.720628322    27.617680432     2.263705051
 H        0.019671959    26.109998900     1.481890284
 H        1.476675034    18.910435297    -4.883293768
 H        3.220971252    18.963484252    -4.556254590
 H        1.725323688    16.315981885    -5.154913920
 H        2.350461729    17.347579661    -6.435900245
 H        4.030835389    16.053446411    -4.178505476
 H        3.881187062    15.428847887    -5.839606435
 H        2.267995477    -1.028191369     0.063371067
 H        2.269441723     0.564923877     0.861564079
 H        2.279638985     0.457009631    -0.917425427
 H       -1.817776664    31.896587889     5.514253880
 H       -0.167951692    31.889971666     4.846960988
 H       -0.702324261    30.566095990     5.914517466
 H       -1.163743341    32.042958457     1.922829074
 H       -2.412981793    30.917840823     1.339357685
 H       -2.835569029    32.178045109     2.527587576
 H       -2.937300302    28.563439233     4.877446203
 H       -3.939923072    29.997668163     4.542353264
 H       -3.627225111    28.812072891     3.252661469
 H        7.983326570    21.048697068     1.629841551
 H        9.595442828    20.880409171     0.881267392
 H        9.262353157    22.229550493     1.997589734
 H        9.402901367    24.289689017    -1.757948303
 H       10.242368988    24.192280045    -0.188528658
 H       10.462066394    22.902717666    -1.398125600
 H       -4.700059342    12.424536096    -2.807074734
 H       -5.909593553    11.970168067    -1.583692946
 H       -5.502866371    13.687573304    -1.833783782
 H       -3.653090804    12.811575688     1.962460705
 H       -4.731847958    14.017867454     1.216865415
 H       -5.286454261    12.337772223     1.429674252
 H       -0.286486091    -0.342429993    -2.452903715
 H       -0.281894883    -1.901517166    -1.587854090
 H       -1.735532678    -0.869494054    -1.564252981
 H       -0.313659505    -0.373853812     2.444002105
 H       -1.702508311    -1.011256701     1.525447938
 H       -0.175101160    -1.922823436     1.574647268

