139   

Si        0.000000000     0.000000000     0.000000000
 C        1.869443611     0.000000000     0.000000000
 C       -0.657842102     1.723474051     0.000000000
 C        0.176614708     2.827993014    -0.193027264
 C       -0.345862853     4.121498553    -0.188608631
 C       -1.709546885     4.338939085     0.021574480
 C       -2.545419222     3.230411500     0.213323530
 C       -2.029074709     1.938156695     0.195041427
 C       -2.303068365     5.671100817     0.035224341
 C       -1.623727004     6.815905055    -0.148291933
 C       -2.231758136     8.141918740    -0.131873557
 C       -3.600640676     8.334438626     0.080730205
 C       -4.143514864     9.616421007     0.089221786
 C       -3.335362285    10.736020566    -0.147534148
 C       -1.968931782    10.545571311    -0.372813505
 C       -1.424002619     9.262422032    -0.361239643
Si       -4.117828212    12.406842732    -0.122198258
 C       -4.632612354    12.751660206     1.603910285
 C       -4.444039265    11.898328160     2.618974776
 C       -4.848233642    12.156661466     4.002383048
 C       -4.590512361    11.174961585     4.971507494
 C       -4.953035739    11.370126970     6.295075661
 C       -5.632672347    12.543323723     6.671007076
 C       -5.904260859    13.521084964     5.706151746
 C       -5.502857996    13.328327861     4.388305268
 N       -5.975455707    12.678351943     8.051623388
 C       -7.028673401    11.726303467     8.474225537
 C       -6.259220392    14.056979266     8.490723316
 C       -8.335645194    11.796358024     7.658982833
 C       -8.352785421    10.746690126     6.527348012
 N       -9.208205540    11.215415427     5.421301036
 C       -8.917776850    10.798466110     4.112722958
 C       -7.694871827    10.188258603     3.766423386
 C       -7.445985349     9.790306221     2.461801698
 C       -8.378778240    10.018154749     1.441473308
 C       -9.578714835    10.652705700     1.778456773
 C       -9.847347510    11.048604074     3.080188951
 C      -10.637884643    11.272972452     5.775909812
 C       -8.076597969     9.581953952     0.077144883
 C       -8.905157700     9.756117956    -0.961170585
Si       -8.607232748     9.243699004    -2.691481757
 C       -6.969403051     8.418868320    -2.886556048
 C       -5.810272628     9.191986765    -3.032511580
 C       -4.567567781     8.583100513    -3.180623061
 C       -4.449849303     7.187024722    -3.183144126
 C       -5.606442810     6.417287140    -3.034687262
 C       -6.853020009     7.025380449    -2.886955908
 C       -3.125110619     6.598135006    -3.341550382
 C       -2.869588693     5.279185265    -3.362569048
 C       -1.539673396     4.700204687    -3.521690895
 C       -0.391887439     5.485285081    -3.669184995
 C        0.860654112     4.893614620    -3.818682354
 C        0.991018375     3.499739970    -3.842659410
 C       -0.156689581     2.712153512    -3.701958287
 C       -1.406641581     3.306508175    -3.540895789
Si        2.663001586     2.746350721    -4.041989245
 C        3.659411262     3.106839878    -2.500573056
 C        2.531388606     0.895890965    -4.273913223
 C        3.498625603     3.495852000    -5.536510712
 C       -9.977884775     8.079306048    -3.203219895
 C       -8.658787851    10.772552536    -3.768982881
 C       -2.918636742    13.721920838    -0.686536247
 C       -5.641103019    12.430696415    -1.199776503
 C       -0.615474278    -0.863146655    -1.540779651
 C       -0.613209208    -0.890994126     1.524437438
 H        1.252295135     2.721744723    -0.356395846
 H        0.322798757     4.964027177    -0.357364425
 H       -3.611608570     3.379803901     0.372545438
 H       -2.730459775     1.112795927     0.342220638
 H       -3.384278874     5.687123945     0.205830326
 H       -0.545304833     6.803389879    -0.326504061
 H       -4.254480789     7.478447898     0.241584660
 H       -5.220930158     9.706706962     0.269873786
 H       -1.291814308    11.381644351    -0.562243658
 H       -0.357788671     9.133055313    -0.533879725
 H       -5.122705235    13.724878780     1.752020073
 H       -3.958193825    10.919294400     2.490075888
 H       -4.079126700    10.255025267     4.685794929
 H       -4.709443048    10.625603904     7.049734749
 H       -6.444202474    14.425804767     5.969198973
 H       -5.724593752    14.098271048     3.648862000
 H       -6.287921709    14.073626751     9.593966123
 H       -7.204912130    14.473947699     8.111996877
 H       -5.430546910    14.716752645     8.178975047
 H      -10.774562186    11.374309922     6.863386677
 H      -11.196772061    10.381263459     5.445367788
 H      -11.087472412    12.168723076     5.309013055
 H       -6.928499502    10.017818271     4.519861564
 H       -6.496718455     9.304027931     2.229446222
 H      -10.322529922    10.852194364     1.006003487
 H      -10.781700650    11.557635093     3.292133374
 H       -7.101899800     9.083671230    -0.020249301
 H       -9.880224301    10.252972158    -0.827814274
 H       -5.838813916    10.285598534    -3.039610052
 H       -3.677292424     9.201811450    -3.284963939
 H       -5.541312472     5.331001114    -3.032686028
 H       -7.721106943     6.371012855    -2.773554436
 H       -2.312417205     7.324593782    -3.440157133
 H       -3.677286208     4.550301675    -3.254753900
 H       -0.469788851     6.571163304    -3.660914512
 H        1.721842714     5.559287842    -3.920521765
 H       -0.115926022     1.619893537    -3.710396760
 H       -2.286322649     2.676823548    -3.421211123
 H       -6.590467772    10.703809308     8.427864228
 H       -7.241737140    11.912475629     9.550022064
 H       -9.203072556    11.657791977     8.325852834
 H       -8.454654688    12.807499858     7.217002153
 H       -7.310427982    10.609854043     6.151237492
 H       -8.686974472     9.760711848     6.914570411
 H        2.267378291    -1.028953106     0.049252759
 H        2.271759497     0.551861785     0.868257111
 H        2.277729618     0.467540278    -0.913550418
 H        4.691943026     2.727884498    -2.592877631
 H        3.208631083     2.633092398    -1.609989694
 H        3.718201365     4.191939854    -2.303666671
 H        2.063527954     0.407016483    -3.400798933
 H        1.925336225     0.644999186    -5.162773103
 H        3.527117883     0.439609080    -4.413875774
 H        3.623001686     4.587585850    -5.429552367
 H        4.500168290     3.061004406    -5.698788575
 H        2.907239338     3.320098394    -6.453515509
 H      -10.044127277     7.208627127    -2.526819438
 H      -10.960382542     8.582849817    -3.186777909
 H       -9.816261757     7.698238307    -4.227239230
 H       -7.937444881    11.536075278    -3.426786379
 H       -8.414614884    10.527257064    -4.817969908
 H       -9.660216138    11.236868128    -3.759558852
 H       -2.039814405    13.781158980    -0.019448959
 H       -2.551707456    13.520761955    -1.708385546
 H       -3.390117192    14.720605791    -0.694572305
 H       -6.384182957    11.683039995    -0.857720171
 H       -6.138735129    13.416221019    -1.167990110
 H       -5.397800513    12.213345919    -2.253993835
 H       -0.235031809    -0.372272832    -2.454674530
 H       -0.290547872    -1.917589567    -1.567635298
 H       -1.718527114    -0.851582873    -1.594446020
 H       -0.285923657    -0.375814987     2.445872594
 H       -1.715578442    -0.943699305     1.550920336
 H       -0.229816490    -1.925331046     1.567947566

