139   

Si        0.000000000     0.000000000     0.000000000
 C        1.869398321     0.000000000     0.000000000
 C       -0.625270442     1.737068085     0.000000000
 C        0.026462911     2.722437055     0.750394283
 C       -0.440634729     4.036059577     0.754681847
 C       -1.570459523     4.394805824     0.014105133
 C       -2.224013392     3.406457744    -0.732971821
 C       -1.759602768     2.093356753    -0.739190956
 C       -2.096018519     5.755216329    -0.012407798
 C       -1.567776347     6.794997765     0.655548048
 C       -2.099163694     8.153670828     0.624258821
 C       -1.451951663     9.148214419     1.368208899
 C       -1.924488674    10.458926765     1.367695601
 C       -3.060147347    10.799685121     0.625984519
 C       -3.710563946     9.807750593    -0.117125016
 C       -3.232890362     8.499030986    -0.117647126
Si       -3.718846132    12.522992490     0.597915633
 C       -5.541291462    12.346798265     0.602233724
 C       -6.361407821    12.801720329    -0.352902329
 C       -7.816283098    12.650395829    -0.330344441
 C       -8.563704833    13.172343394    -1.393142552
 C       -9.944680222    13.058572537    -1.425239762
 C      -10.623497635    12.319371367    -0.433275351
 C       -9.867664289    11.771181394     0.623780807
 C       -8.494228789    11.958802083     0.678592147
 N      -12.022085151    12.197247193    -0.455601870
 C      -12.721661221    12.458672638    -1.725650367
 C      -12.597986762    11.090625189     0.326433163
 C      -12.266988619    11.602020339    -2.920973791
 C      -12.973055928    10.235288060    -2.993343196
 N      -12.088283352     9.115973113    -3.385287114
 C      -11.171011673     8.754248072    -2.348074681
 C      -11.710128820     8.026198193    -1.273070800
 C      -10.892639935     7.634799954    -0.225075962
 C       -9.522948193     7.940762754    -0.225789144
 C       -8.992748590     8.653371185    -1.303873329
 C       -9.804258433     9.055285473    -2.361337830
 C      -11.475668684     9.306799617    -4.711784388
 C       -8.715936610     7.496992291     0.913593534
 C       -7.401904868     7.715287526     1.050323544
Si       -6.415700429     7.147254332     2.489688106
 C       -5.679586702     8.627714719     3.301637408
 C       -6.419467041     9.812166446     3.387143306
 C       -5.876336683    10.940675523     3.998431656
 C       -4.593099954    10.902695894     4.551786109
 C       -3.856976254     9.714067226     4.468119023
 C       -4.391089835     8.588531402     3.845467885
 C       -3.984777355    12.059279351     5.201071222
 C       -4.584693168    13.253509289     5.345013854
 C       -3.981685067    14.412911579     5.992967400
 C       -2.694343883    14.388345977     6.536616067
 C       -2.157148713    15.520850147     7.147319832
 C       -2.898934539    16.704227796     7.231499671
 C       -4.188300599    16.731606152     6.685769226
 C       -4.720154114    15.600738559     6.071198777
Si       -2.185571673    18.202750715     8.040663071
 C       -1.035227826    17.694143710     9.423870759
 C       -1.238703243    19.169596990     6.752052384
 C       -3.552676659    19.263096331     8.748918583
 C       -7.487697951     6.271508745     3.745530773
 C       -5.088890735     5.985563173     1.885859822
 C       -3.168823966    13.513968692     2.073852087
 C       -3.110543309    13.354189026    -0.962400116
 C       -0.605912599    -0.909066383    -1.516972635
 C       -0.634251734    -0.851380460     1.537959141
 H        0.915071864     2.502927783     1.348790158
 H        0.086122959     4.784590923     1.343878660
 H       -3.106194672     3.663952682    -1.316603422
 H       -2.310779155     1.366178815    -1.341773686
 H       -2.981308303     5.888736979    -0.642340699
 H       -0.679412172     6.663879346     1.279667555
 H       -0.569738369     8.898512810     1.953677081
 H       -1.383261093    11.194802266     1.968374601
 H       -4.610358513    10.019109747    -0.705075698
 H       -3.752936936     7.745860812    -0.707313372
 H       -5.928193966    11.810597143     1.485740888
 H       -5.998351533    13.337398185    -1.239768279
 H       -8.058390905    13.705096181    -2.199200772
 H      -10.491890452    13.539796150    -2.229191667
 H      -10.350655842    11.198195561     1.409261962
 H       -7.935212844    11.538263927     1.517248871
 H      -13.684746304    11.023207885     0.162212361
 H      -12.448771917    11.295844653     1.402713575
 H      -12.146725510    10.110555393     0.087212335
 H      -12.282355870     9.387705613    -5.460669118
 H      -10.880995073     8.411360795    -4.965331138
 H      -10.829958784    10.193432067    -4.800719675
 H      -12.766346799     7.763725012    -1.281667374
 H      -11.320656517     7.072069744     0.604236374
 H       -7.932446712     8.912393865    -1.319909092
 H       -9.369804591     9.618264904    -3.182947485
 H       -9.306108724     6.952840772     1.663700213
 H       -6.826854510     8.265804045     0.288674272
 H       -7.431815008     9.892767639     2.977575516
 H       -6.464739519    11.855770194     4.045896495
 H       -2.853412880     9.667375179     4.885669393
 H       -3.765170834     7.693071504     3.793573665
 H       -2.973907913    11.891726595     5.583306325
 H       -5.597761225    13.417981164     4.963893312
 H       -2.098188541    13.478876484     6.488024485
 H       -1.145415335    15.440212532     7.554268744
 H       -4.814356873    17.627477373     6.722282373
 H       -5.723330008    15.642833970     5.649846975
 H      -13.815522855    12.342259007    -1.558439491
 H      -12.574434483    13.540692814    -1.962838072
 H      -12.432527285    12.160798370    -3.859365451
 H      -11.168273932    11.445579023    -2.864388483
 H      -13.434648213     9.977291407    -2.014824645
 H      -13.807578753    10.268313567    -3.728325187
 H        2.269141647    -1.028345907    -0.050341289
 H        2.279355805     0.470194080     0.910846040
 H        2.268388633     0.554639124    -0.868825394
 H       -0.647530014    18.575331878     9.965400152
 H       -0.164920628    17.129457334     9.046574521
 H       -1.554579207    17.053990118    10.159992362
 H       -0.423257829    18.565696328     6.315100403
 H       -1.896360792    19.483220340     5.921422122
 H       -0.786721578    20.080187256     7.182939418
 H       -4.183814641    18.686646322     9.449393914
 H       -3.142129296    20.124827252     9.304858249
 H       -4.211279913    19.664207238     7.958807061
 H       -8.295402482     6.926252341     4.117697051
 H       -7.954644835     5.367233711     3.317621153
 H       -6.893901052     5.954393272     4.621858103
 H       -4.311769216     6.524825239     1.310527809
 H       -4.578988221     5.479788676     2.725382793
 H       -5.504417074     5.198394060     1.231799904
 H       -3.389864734    12.983986528     3.019654203
 H       -2.083789447    13.715103460     2.051347946
 H       -3.685967763    14.490106389     2.119315137
 H       -3.419921968    12.797322156    -1.864425210
 H       -3.503023359    14.382657139    -1.048439274
 H       -2.007795172    13.416242943    -0.976430312
 H       -0.316514906    -0.380700415    -2.443379381
 H       -0.179161847    -1.926634489    -1.569129695
 H       -1.705162872    -1.012813464    -1.520040907
 H       -0.287126177    -0.339833875     2.453531915
 H       -1.738833300    -0.860245071     1.565197023
 H       -0.290345867    -1.899309922     1.589292342

