139   

Si        0.000000000     0.000000000     0.000000000
 C        1.869401809     0.000000000     0.000000000
 C       -0.611672413     1.741647109     0.000000000
 C       -0.065727645     2.672825670    -0.891496918
 C       -0.516748592     3.991753277    -0.903946465
 C       -1.526193962     4.410202407    -0.031713400
 C       -2.073377755     3.476088960     0.857009096
 C       -1.623050466     2.157802986     0.873303084
 C       -2.029810159     5.779557827    -0.008886878
 C       -1.591504017     6.770238722    -0.804135316
 C       -2.096914864     8.139024067    -0.779291243
 C       -1.550617245     9.076322549    -1.664790850
 C       -2.002139099    10.394552461    -1.676485929
 C       -3.013979723    10.805886426    -0.802494465
 C       -3.561646998     9.869839703     0.083907684
 C       -3.106838540     8.552851603     0.094923341
Si       -3.637591962    12.542806814    -0.789003792
 C       -5.445156610    12.582315817    -1.089953371
 C       -6.205284316    11.498216296    -1.291445229
 C       -7.648661634    11.528139619    -1.531870275
 C       -8.321038514    10.312372425    -1.727585243
 C       -9.686128930    10.280616804    -1.959058456
 C      -10.418746877    11.481992681    -2.047294644
 C       -9.750799346    12.699171552    -1.843364707
 C       -8.389369832    12.711875916    -1.559504452
 N      -11.813316130    11.397322438    -2.285309269
 C      -12.210529671    10.593277775    -3.459701356
 C      -12.562393977    12.662244850    -2.188901579
 C      -11.804665287    11.187432519    -4.821772020
 C      -10.479202325    10.596224682    -5.343602751
 N       -9.745308957    11.466407840    -6.289119903
 C       -9.173985756    12.601278129    -5.623675994
 C       -7.949686451    12.384696450    -4.970129352
 C       -7.329679799    13.429397327    -4.302483926
 C       -7.903043054    14.710573189    -4.282875105
 C       -9.113007763    14.918348119    -4.948358663
 C       -9.745894494    13.877865789    -5.621904329
 C      -10.526270579    11.795171244    -7.494695817
 C       -7.206383137    15.779994022    -3.562291675
 C       -7.655039947    17.039119520    -3.474209077
Si       -6.805301642    18.393490559    -2.581127335
 C       -5.250749584    17.739100498    -1.835134275
 C       -5.169226076    17.451833545    -0.467884946
 C       -3.987935838    16.958030428     0.080810796
 C       -2.859148680    16.748308013    -0.720975312
 C       -2.944230435    17.034314938    -2.087281164
 C       -4.127881660    17.518309586    -2.640946971
 C       -1.644260424    16.229597382    -0.101720004
 C       -0.500385675    15.975349585    -0.759273840
 C        0.713414785    15.456603694    -0.137925290
 C        0.796618695    15.171239800     1.228264443
 C        1.976248980    14.676633937     1.781591186
 C        3.100505506    14.451925026     0.977650001
 C        3.018429808    14.734419864    -0.390406576
 C        1.838222228    15.230323671    -0.940612019
Si        4.649721348    13.795947754     1.738922137
 C        4.273139996    12.140739646     2.519846925
 C        5.983644500    13.579955993     0.447705759
 C        5.236948170    15.003209926     3.039227823
 C       -6.401831022    19.765305497    -3.782242708
 C       -7.953622610    19.038142432    -1.255413215
 C       -3.268981186    13.310106213     0.871671937
 C       -2.827099798    13.523995607    -2.155339856
 C       -0.635262961    -0.847395361    -1.539971337
 C       -0.610253321    -0.913941000     1.512239278
 H        0.724530716     2.405332918    -1.598576733
 H       -0.074015894     4.697654952    -1.604476784
 H       -2.860100970     3.780297694     1.545074756
 H       -2.086956356     1.474941268     1.590211829
 H       -2.820027311     5.963363489     0.725169770
 H       -0.801456579     6.587354886    -1.538329648
 H       -0.763142879     8.775411222    -2.352972918
 H       -1.535521337    11.082111860    -2.387677695
 H       -4.352145128    10.135517456     0.793163049
 H       -3.547091078     7.844441340     0.794156599
 H       -5.876672462    13.595595667    -1.088120984
 H       -5.791488271    10.478994476    -1.301627819
 H       -7.764376889     9.375290117    -1.689173675
 H      -10.196168129     9.326833583    -2.065925397
 H      -10.279514309    13.644994864    -1.912236181
 H       -7.896280132    13.670926023    -1.387735797
 H      -13.642006357    12.450773631    -2.270966492
 H      -12.294790915    13.407205054    -2.955167019
 H      -12.394874928    13.104824665    -1.190237306
 H      -10.736217998    10.857202267    -8.037493306
 H       -9.913542913    12.429607399    -8.158850092
 H      -11.480439462    12.307555555    -7.304937806
 H       -7.500539285    11.391775411    -4.988168374
 H       -6.383977972    13.246850238    -3.786210389
 H       -9.574900431    15.905133385    -4.947440081
 H      -10.683950377    14.062751544    -6.135732742
 H       -6.267447971    15.447762332    -3.095425061
 H       -8.598946274    17.344591072    -3.951658565
 H       -6.016638339    17.599545256     0.207649189
 H       -3.943911678    16.740681818     1.146475689
 H       -2.079957842    16.882665742    -2.731619019
 H       -4.136446858    17.717323943    -3.716971487
 H       -1.718080398    16.052963060     0.975556202
 H       -0.423734544    16.153112625    -1.835837582
 H       -0.064650909    15.334432203     1.873716440
 H        1.981441843    14.472374569     2.856163516
 H        3.863441529    14.578108052    -1.066280202
 H        1.794466859    15.443535149    -2.006956087
 H      -11.795131167     9.567759767    -3.341036714
 H      -13.317475735    10.471862907    -3.415744650
 H      -12.607497426    11.014715475    -5.559651745
 H      -11.711740640    12.288013113    -4.735833070
 H       -9.793227916    10.377551742    -4.490290122
 H      -10.663003136     9.627155906    -5.855962172
 H        2.269882387    -1.028860873     0.023680853
 H        2.268701111     0.533229196     0.881967164
 H        2.277550677     0.495069542    -0.898493625
 H        5.175436930    11.693488269     2.972600507
 H        3.885878411    11.425059998     1.771296430
 H        3.510342547    12.230298115     3.313659155
 H        5.667513773    12.883127773    -0.348956839
 H        6.244920568    14.540846416    -0.030154553
 H        6.908064966    13.172168078     0.894727261
 H        4.472854096    15.161584844     3.820667413
 H        6.154289561    14.643186559     3.537361949
 H        5.463791670    15.989479437     2.595253528
 H       -5.795505344    19.400121251    -4.630424308
 H       -7.318571525    20.215464145    -4.202520192
 H       -5.830802118    20.571936908    -3.287772073
 H       -8.290837940    18.230589224    -0.580706298
 H       -7.459932639    19.809578669    -0.637915931
 H       -8.857286173    19.495773559    -1.695877984
 H       -3.748758029    12.751223358     1.693878834
 H       -2.180837455    13.322728768     1.066548310
 H       -3.631947721    14.352804887     0.915680779
 H       -2.966664226    13.042973712    -3.139238519
 H       -3.258646408    14.541088200    -2.220052702
 H       -1.742679004    13.638378655    -1.978176093
 H       -0.290060940    -0.333420453    -2.454738737
 H       -0.291221847    -1.895041095    -1.594432226
 H       -1.740018503    -0.856721303    -1.565088045
 H       -0.292909778    -0.409464059     2.442543897
 H       -1.712084485    -0.986044130     1.527742938
 H       -0.212680137    -1.944164765     1.542424318

