139   

Si        0.000000000     0.000000000     0.000000000
 C        1.867297041     0.000000000     0.000000000
 C       -0.593924905     1.748383608     0.000000000
 C       -0.890140199     2.411328608     1.195974469
 C       -1.337911899     3.731691429     1.183262614
 C       -1.473721486     4.430293862    -0.020251653
 C       -1.172448330     3.766554523    -1.214491506
 C       -0.747007897     2.440799148    -1.206766051
 C       -1.938495532     5.812859889    -0.082005070
 C       -2.276286423     6.538412864     0.996883559
 C       -2.744149337     7.919115382     0.979191540
 C       -3.052751640     8.521784020     2.207046803
 C       -3.504027959     9.835906168     2.260930749
 C       -3.625586344    10.593563698     1.087276609
 C       -3.304604403    10.001326561    -0.136743420
 C       -2.869659551     8.675363214    -0.188585695
Si       -4.230346693    12.326274740     1.242956201
 C       -3.963394580    13.310062257    -0.280271742
 C       -3.222683784    14.425024064    -0.328822591
 C       -2.997970295    15.224201951    -1.536134482
 C       -2.195832452    16.371526083    -1.433207701
 C       -1.947076057    17.167329618    -2.539726056
 C       -2.483272063    16.816752299    -3.792124076
 C       -3.279379398    15.670593132    -3.903720030
 C       -3.534673189    14.888375323    -2.781033732
 N       -2.179321576    17.690315556    -4.880793437
 C       -0.768198349    17.592772070    -5.311402798
 C       -3.126080024    17.636461958    -6.008313801
 C       -0.417876456    16.271636824    -6.021784484
 C        0.968596577    15.732080890    -5.624094322
 N        0.956858296    14.730193118    -4.548275870
 C        0.325152453    13.501532480    -4.780742952
 C       -0.114747348    13.130469423    -6.068685330
 C       -0.737117774    11.908689214    -6.271509687
 C       -0.872120267    10.979384475    -5.232491023
 C       -0.411431852    11.336288878    -3.960145861
 C        0.164706618    12.575977891    -3.727111812
 C        0.839705036    15.289084996    -3.192849124
 C       -1.539223544     9.708569219    -5.513119242
 C       -1.733497848     8.735956901    -4.612513296
Si       -2.571091634     7.148995421    -4.978937698
 C       -1.381322747     5.776251950    -4.641996474
 C       -0.128176645     6.025907467    -4.070835794
 C        0.756191955     4.978178355    -3.823872638
 C        0.425079457     3.663301467    -4.174672590
 C       -0.823118807     3.418352363    -4.755834797
 C       -1.719899348     4.461287575    -4.981616263
 C        1.384240222     2.599688306    -3.895818501
 C        1.180419084     1.297858317    -4.159788452
 C        2.141675181     0.236788657    -3.879673070
 C        3.388731546     0.486333957    -3.298396670
 C        4.278364541    -0.556667799    -3.047324913
 C        3.937408634    -1.876337406    -3.367738640
 C        2.690015612    -2.128374784    -3.949058224
 C        1.804507634    -1.083271823    -4.203665911
Si        5.138015577    -3.234956438    -3.022519255
 C        5.527353166    -3.230274904    -1.194099851
 C        4.418594535    -4.893874600    -3.495007020
 C        6.692496563    -2.928032248    -4.012745790
 C       -4.027378222     6.969631528    -3.821508403
 C       -3.140743858     7.061176544    -6.753700821
 C       -6.073664615    12.265300535     1.553410846
 C       -3.372866937    13.140480099     2.692778853
 C       -0.626058333    -0.879656144    -1.525656691
 C       -0.631607168    -0.890933327     1.518843673
 H       -0.791926310     1.922897731     2.168702495
 H       -1.573994164     4.218740022     2.127367034
 H       -1.277306815     4.289182536    -2.167235793
 H       -0.535768531     1.975252777    -2.175330966
 H       -1.995427651     6.237343163    -1.088390845
 H       -2.212448905     6.097550547     1.997197566
 H       -2.948991385     7.953568484     3.129607135
 H       -3.744687899    10.242753434     3.247503779
 H       -3.374118515    10.549978133    -1.081061165
 H       -2.622740596     8.233510489    -1.152818251
 H       -4.469870775    12.919848455    -1.176824622
 H       -2.708148412    14.833096285     0.552290419
 H       -1.772950482    16.650997015    -0.468219802
 H       -1.351189959    18.073293784    -2.447135117
 H       -3.693529193    15.375755199    -4.864060992
 H       -4.152870332    13.995608286    -2.886587533
 H       -2.920678798    18.490295157    -6.677312786
 H       -4.154300306    17.761918279    -5.625497107
 H       -3.082018644    16.711556256    -6.603304075
 H        1.234280709    16.316127362    -3.155653673
 H        1.448362559    14.682070417    -2.497453596
 H       -0.203287920    15.308200834    -2.826600502
 H        0.013358185    13.797496359    -6.914445856
 H       -1.105320103    11.662349028    -7.268021547
 H       -0.512768437    10.635314036    -3.129373765
 H        0.494504459    12.825048663    -2.722650531
 H       -1.869239944     9.622005714    -6.557609032
 H       -1.395736976     8.848448152    -3.570517742
 H        0.195967804     7.035545048    -3.797677921
 H        1.718547077     5.188943994    -3.359632923
 H       -1.105561617     2.405788178    -5.037756404
 H       -2.684468730     4.206912524    -5.429173625
 H        2.318038586     2.935914129    -3.434146245
 H        0.248327719     0.961349978    -4.622868075
 H        3.676571777     1.503940815    -3.038302235
 H        5.239743068    -0.299658283    -2.593206867
 H        2.370780279    -3.138248254    -4.219893074
 H        0.840833564    -1.300241431    -4.660822026
 H       -0.563025846    18.458839146    -5.978889042
 H       -0.128011559    17.738714518    -4.412817755
 H       -1.188596935    15.506058493    -5.788712130
 H       -0.467764123    16.408546205    -7.116374459
 H        1.464561607    15.266376697    -6.509828732
 H        1.643640036    16.563257243    -5.319236297
 H        2.267511089    -1.028412290     0.041651353
 H        2.276382066     0.558463441     0.859199653
 H        2.263828652     0.467656886    -0.921827662
 H        6.233610195    -4.037520309    -0.931811570
 H        4.613407884    -3.377825575    -0.590420015
 H        5.981077209    -2.274360409    -0.877870736
 H        3.490632248    -5.108143646    -2.935458675
 H        4.180543958    -4.940541583    -4.572578863
 H        5.129455801    -5.711766074    -3.279736929
 H        7.151537836    -1.956532181    -3.757201344
 H        7.447580528    -3.712655726    -3.829707117
 H        6.480074465    -2.916576005    -5.097300871
 H       -3.714250454     6.973563337    -2.761358478
 H       -4.748753106     7.795589189    -3.955947041
 H       -4.567080153     6.022304907    -3.998646709
 H       -2.288691253     7.140890698    -7.453492975
 H       -3.653641697     6.107525083    -6.969471300
 H       -3.846362706     7.876809723    -6.991993062
 H       -6.607180051    11.777854888     0.717682791
 H       -6.306779163    11.695956920     2.470506055
 H       -6.494248793    13.279860866     1.671204724
 H       -2.276141351    13.145030893     2.557093644
 H       -3.702390225    14.187398886     2.817430982
 H       -3.585750058    12.614262085     3.639602305
 H       -0.184771992    -0.448229410    -2.443366403
 H       -0.358005941    -1.950556892    -1.505583909
 H       -1.724137697    -0.808028200    -1.611597903
 H       -0.217680611    -0.460261904     2.446924240
 H       -1.732766206    -0.835846472     1.585793079
 H       -0.353028590    -1.959254422     1.497603643

