139   

Si        0.000000000     0.000000000     0.000000000
 C        1.865806541     0.000000000     0.000000000
 C       -0.632725644     1.733327174     0.000000000
 C        0.174189463     2.808884391    -0.383020049
 C       -0.326893875     4.111413940    -0.374841279
 C       -1.647121059     4.362904965     0.004301723
 C       -2.457909728     3.282183148     0.378258642
 C       -1.960189364     1.982960712     0.372923744
 C       -2.227543396     5.699721271     0.033109240
 C       -1.590738627     6.837721381    -0.291363252
 C       -2.218831398     8.154831458    -0.245628957
 C       -1.476085071     9.287293176    -0.602172143
 C       -2.050359383    10.557616948    -0.567785556
 C       -3.374969933    10.732790598    -0.145707031
 C       -4.109431580     9.602005572     0.227203481
 C       -3.538531961     8.332456331     0.180339075
Si       -4.137711658    12.416551960    -0.099604614
 C       -5.940915204    12.418504541    -0.448510185
 C       -6.698962780    11.348741232    -0.718398533
 C       -8.135749911    11.374665749    -0.993600873
 C       -8.773913519    10.155481512    -1.257474348
 C      -10.131418881    10.097858655    -1.526941776
 C      -10.894777277    11.276538468    -1.612130783
 C      -10.252363553    12.505769188    -1.359647160
 C       -8.901706204    12.543076157    -1.036130014
 N      -12.277161911    11.246195016    -1.884984671
 C      -12.895641378     9.953672793    -2.222777191
 C      -12.797807690    12.364366875    -2.691243800
 C      -12.547256081     9.430920924    -3.627771430
 C      -12.881746622     7.937818201    -3.801773584
 N      -11.877942759     6.983926510    -3.282319211
 C      -10.536189931     7.255275828    -3.628969853
 C      -10.246231293     7.635454377    -4.956550625
 C       -8.943288391     7.909844222    -5.335597397
 C       -7.884412130     7.803045535    -4.421441901
 C       -8.169580101     7.390139306    -3.118622261
 C       -9.470201548     7.089790929    -2.728028755
 C      -12.130059381     6.557516098    -1.896991234
 C       -6.528730651     8.106346316    -4.881814870
 C       -5.435107846     8.042924189    -4.111402863
Si       -3.743239735     8.424824854    -4.698490320
 C       -2.650252983     6.954289940    -4.503349716
 C       -3.119739792     5.674981703    -4.825355501
 C       -2.292787225     4.564329345    -4.677468948
 C       -0.981919989     4.704213596    -4.202481823
 C       -0.518674977     5.981565406    -3.876350505
 C       -1.345118281     7.095337262    -4.020877868
 C       -0.154618594     3.510212266    -4.065023878
 C        1.113791793     3.504894184    -3.620556611
 C        1.937043869     2.307925360    -3.484899739
 C        1.468633569     1.032633281    -3.812580079
 C        2.286871447    -0.087184012    -3.668804245
 C        3.595155250     0.043342922    -3.190044824
 C        4.066190248     1.320000334    -2.858327150
 C        3.246336739     2.436603716    -3.003054327
Si        4.676119276    -1.442159203    -3.000897886
 C        3.623200734    -2.936920251    -2.608041085
 C        5.597837524    -1.714224756    -4.602302990
 C        5.889058319    -1.172970750    -1.603882589
 C       -3.745712680     8.871517227    -6.516019780
 C       -3.133311838     9.881603956    -3.713632452
 C       -3.873838661    13.122786573     1.609966869
 C       -3.323812858    13.507317785    -1.382663395
 C       -0.646727255    -0.880444033    -1.515968153
 C       -0.602112172    -0.879683947     1.538206055
 H        1.211624692     2.670320166    -0.704088660
 H        0.319705216     4.932658352    -0.677205135
 H       -3.490645318     3.457685532     0.672594251
 H       -2.640044291     1.180789381     0.671741372
 H       -3.276892513     5.725880413     0.347208740
 H       -0.548956224     6.826869612    -0.618310425
 H       -0.441375547     9.176346943    -0.919657204
 H       -1.423764732    11.399959651    -0.872545913
 H       -5.137636214     9.671070750     0.598481418
 H       -4.137008451     7.472622646     0.477990640
 H       -6.384952928    13.425801550    -0.402505254
 H       -6.281199627    10.333309999    -0.798317905
 H       -8.198543924     9.227447060    -1.244975278
 H      -10.586232188     9.127503027    -1.705213228
 H      -10.814312894    13.433676045    -1.397610533
 H       -8.433648822    13.505126153    -0.826683703
 H      -13.864129606    12.207062674    -2.920198091
 H      -12.253107243    12.503093781    -3.639433473
 H      -12.730451273    13.298325419    -2.104662802
 H      -13.196990792     6.305305794    -1.775488067
 H      -11.858930423     7.306249784    -1.135154919
 H      -11.561523105     5.629786337    -1.698369747
 H      -11.046652480     7.710498975    -5.687139978
 H       -8.740666550     8.212117062    -6.363470969
 H       -7.359316165     7.278588314    -2.395275335
 H       -9.646773197     6.751001070    -1.712016532
 H       -6.492421422     8.395317732    -5.940872613
 H       -5.492739994     7.756982770    -3.049539288
 H       -4.137120602     5.506211627    -5.191719931
 H       -2.673921489     3.576159516    -4.927764208
 H        0.493429523     6.116614422    -3.501100429
 H       -0.933112851     8.068222477    -3.738729034
 H       -0.650418730     2.576297416    -4.347168493
 H        1.607637127     4.436643570    -3.332118979
 H        0.455128727     0.906203812    -4.191098598
 H        1.863288232    -1.057971199    -3.941201915
 H        5.078310672     1.482925053    -2.478643029
 H        3.631276327     3.419951933    -2.739971051
 H      -12.605420895     9.214802259    -1.441545637
 H      -13.998937461    10.072704671    -2.121032453
 H      -13.088284104    10.020301271    -4.390747541
 H      -11.472081857     9.610829824    -3.840663988
 H      -13.867298352     7.709187249    -3.341030634
 H      -13.001451370     7.713508144    -4.889601687
 H        2.270661476    -1.026097509     0.032539885
 H        2.271328816     0.546609438     0.869376931
 H        2.263851770     0.485595359    -0.912714556
 H        4.248571650    -3.822093081    -2.396277639
 H        2.954789706    -3.198421526    -3.446818308
 H        2.989200597    -2.756791792    -1.720431449
 H        4.902095130    -1.871042908    -5.446196293
 H        6.229628759    -0.843896553    -4.855797998
 H        6.255999293    -2.598788132    -4.543444428
 H        5.367238924    -0.923813205    -0.662153144
 H        6.491839490    -2.079920294    -1.419096877
 H        6.591576767    -0.350334813    -1.823929042
 H       -4.121245656     8.038794953    -7.136360930
 H       -4.378665391     9.754274632    -6.713292205
 H       -2.725422187     9.107690773    -6.867033412
 H       -3.038884417     9.616640332    -2.641939987
 H       -2.149948758    10.238735296    -4.061197596
 H       -3.840343763    10.729690232    -3.777768144
 H       -4.375582332    12.506426393     2.378410718
 H       -2.800353044    13.160533121     1.867100818
 H       -4.275197323    14.147813897     1.692312260
 H       -3.397163012    13.056825820    -2.389829334
 H       -3.806172202    14.499743910    -1.429140928
 H       -2.254491535    13.669111349    -1.164019603
 H       -0.255628636    -0.416453190    -2.439696575
 H       -0.345780915    -1.942145940    -1.521307387
 H       -1.748918713    -0.841412848    -1.564927305
 H       -0.285881360    -0.344750631     2.451811295
 H       -1.702641962    -0.955432121     1.562509455
 H       -0.197090227    -1.904961439     1.596295219

