139   

Si        0.000000000     0.000000000     0.000000000
 C        1.869192653     0.000000000     0.000000000
 C       -0.654752654     1.726220016     0.000000000
 C        0.196767545     2.833638102    -0.050783274
 C       -0.321947324     4.128493786    -0.049681870
 C       -1.701215858     4.345735658     0.000758766
 C       -2.553564306     3.234383471     0.050879560
 C       -2.039015600     1.940829499     0.050508710
 C       -2.286936396     5.682014091     0.003855943
 C       -1.580475927     6.824321002    -0.040443389
 C       -2.164429630     8.160899429    -0.037419343
 C       -3.544239049     8.380903082     0.013001650
 C       -4.057835175     9.676712238     0.013889941
 C       -3.201861650    10.785742341    -0.008807551
 C       -1.821703064    10.564670970    -0.058178381
 C       -1.310028292     9.269213423    -0.084196695
Si       -3.943840366    12.475521594    -0.006341320
 C       -2.838904812    13.866825253     0.435462199
 C       -1.541807734    13.854021075     0.766448103
 C       -0.776234557    15.058473105     1.099972027
 C        0.578623847    14.939535205     1.433662878
 C        1.341163982    16.054976611     1.756262207
 C        0.775346720    17.340856831     1.703102728
 C       -0.587782996    17.463442446     1.365209219
 C       -1.347069118    16.336131974     1.092680060
 N        1.485684078    18.522560160     2.016183075
 C        2.894806466    18.387280510     2.430433357
 C        1.255760152    19.624620281     1.058245722
 C        3.316803687    19.584653918     3.305366476
 C        2.472504796    19.700973720     4.591389386
 N        2.836329584    18.777755119     5.682704510
 C        2.466018969    17.423918963     5.461511608
 C        1.090871895    17.141114726     5.336283615
 C        0.665072958    15.841948001     5.119733516
 C        1.586541500    14.784554514     5.041912928
 C        2.944962172    15.068379851     5.187591285
 C        3.387895512    16.369462686     5.405883014
 C        4.198752147    18.993736277     6.196859993
 C        1.081797586    13.429280530     4.811310035
 C        1.860822167    12.344099325     4.718507511
Si        1.299513441    10.624650354     4.432076779
 C       -0.532658998    10.501845365     4.272510200
 C       -1.368928762    11.220628407     5.137880827
 C       -2.753258516    11.131203428     5.021388935
 C       -3.336667093    10.292868365     4.062803857
 C       -2.500257179     9.564517357     3.214401278
 C       -1.113558348     9.666096344     3.315289341
 C       -4.791242892    10.225378423     3.970472334
 C       -5.455301382     9.471282815     3.078382632
 C       -6.906436129     9.387507375     2.966944693
 C       -7.770191792    10.102717673     3.799660673
 C       -9.153323506     9.991116949     3.656133874
 C       -9.701519303     9.167060199     2.669312225
 C       -8.837052863     8.451143584     1.829590853
 C       -7.457644867     8.560778587     1.978031652
Si      -11.526393314     8.997199190     2.452974934
 C      -12.444720512    10.017084923     3.721898899
 C      -11.983184157     9.585980377     0.738735333
 C      -11.990254027     7.198055713     2.657190029
 C        2.115895541    10.023097768     2.858876476
 C        1.834287042     9.569045699     5.877346929
 C       -4.596045650    12.796872006    -1.729900279
 C       -5.343527863    12.502696372     1.233200788
 C       -0.620018128    -0.873013171    -1.531605803
 C       -0.615729833    -0.876770078     1.531354601
 H        1.284264294     2.727649646    -0.091281472
 H        0.363297000     4.973503879    -0.088745038
 H       -3.631369680     3.381402132     0.091903886
 H       -2.752933072     1.113300264     0.091643292
 H       -3.379959725     5.702688971     0.047523663
 H       -0.487831221     6.802110016    -0.083437957
 H       -4.230304927     7.536586030     0.039422388
 H       -5.147577721     9.784546836     0.038006772
 H       -1.102056842    11.389068244    -0.092014499
 H       -0.233149752     9.121523629    -0.136981984
 H       -3.387255454    14.826723650     0.397786677
 H       -0.950224175    12.932203716     0.840403515
 H        1.045538739    13.953280618     1.461895286
 H        2.382423664    15.915230046     2.032389559
 H       -1.055718355    18.443289421     1.346003466
 H       -2.405082269    16.457351853     0.858296106
 H        2.085525850    20.347070601     1.064990884
 H        0.342899597    20.167600687     1.362882911
 H        1.125712410    19.272395940     0.021753811
 H        4.303977896    20.052210646     6.490587287
 H        5.002074671    18.749428568     5.485081731
 H        4.339770749    18.387441811     7.109482873
 H        0.367214516    17.951769914     5.400409231
 H       -0.401123282    15.639950650     5.005565810
 H        3.678933027    14.264343285     5.133338773
 H        4.451142744    16.555985190     5.513584201
 H       -0.010938548    13.392611544     4.692498018
 H        2.954837118    12.424698934     4.825363692
 H       -0.971288118    11.866874699     5.926750999
 H       -3.386106488    11.712222824     5.688966331
 H       -2.925370640     8.906154286     2.455525135
 H       -0.518556627     9.075482381     2.612398764
 H       -5.329152004    10.845187846     4.692499027
 H       -4.905557657     8.848521274     2.363232699
 H       -7.368241475    10.752897465     4.574644706
 H       -9.778651963    10.571335507     4.340086811
 H       -9.210040424     7.791610427     1.041191020
 H       -6.801466546     7.994515449     1.319234462
 H        3.007996598    17.455131995     3.035698879
 H        3.578264924    18.292601959     1.559441097
 H        4.389062416    19.485367477     3.553906363
 H        3.227563088    20.527499684     2.734776678
 H        2.547632883    20.734615472     4.997180923
 H        1.395900753    19.541399218     4.338114498
 H        2.267076005    -1.030687589     0.001830865
 H        2.273805991     0.511131430     0.891813514
 H        2.275035441     0.507940495    -0.892874299
 H      -13.537877009     9.909588915     3.603452939
 H      -12.206971453    11.091586884     3.627716993
 H      -12.192329276     9.704975943     4.751125998
 H      -11.703896327    10.645120844     0.592273908
 H      -11.468805367     8.998640853    -0.042156363
 H      -13.069447596     9.500025541     0.560203815
 H      -11.706613913     6.823943520     3.657852520
 H      -13.077954307     7.047496535     2.541211607
 H      -11.483437495     6.560769735     1.911407472
 H        1.761554958    10.594817887     1.981952658
 H        3.212530746    10.137860852     2.908193602
 H        1.903516899     8.955324406     2.675879896
 H        1.385856627     9.926863315     6.822108057
 H        1.520943749     8.518225980     5.741889933
 H        2.930301311     9.578490610     6.005037531
 H       -3.775395710    12.818047196    -2.469611272
 H       -5.303791570    12.009163566    -2.043227609
 H       -5.123342339    13.764512639    -1.790216029
 H       -4.968497887    12.259420205     2.247041447
 H       -5.825612233    13.493427226     1.285397453
 H       -6.127011128    11.762980618     0.990566791
 H       -0.272749485    -0.365124034    -2.449736913
 H       -0.262266942    -1.916834275    -1.572627535
 H       -1.723648544    -0.896475940    -1.565868503
 H       -0.271715129    -0.366038843     2.449314144
 H       -1.719079984    -0.907970419     1.565705110
 H       -0.250959214    -1.918155371     1.572917278

