139   

Si        0.000000000     0.000000000     0.000000000
 C        1.869699403     0.000000000     0.000000000
 C       -0.627996453     1.736000394     0.000000000
 C        0.067708463     2.742655751    -0.678742433
 C       -0.404444868     4.054598002    -0.680305346
 C       -1.585623655     4.389824209    -0.012218713
 C       -2.283607452     3.379638758     0.662240408
 C       -1.812629206     2.068899482     0.668299939
 C       -2.117880313     5.748292797     0.013493405
 C       -1.546456334     6.805590344    -0.587797692
 C       -2.079665065     8.163850290    -0.561437877
 C       -1.379741691     9.175149145    -1.233236371
 C       -1.849814446    10.485782848    -1.235812332
 C       -3.039761179    10.812609757    -0.573179405
 C       -3.741407948     9.805575777     0.096527310
 C       -3.263003775     8.495636550     0.104180964
Si       -3.656298057    12.549350759    -0.580527640
 C       -5.460804537    12.562476881    -0.257468295
 C       -6.059940443    13.175940671     0.771403088
 C       -7.505931791    13.168887885     1.003691855
 C       -8.013556286    13.851057558     2.121142787
 C       -9.370777876    13.877163033     2.388686358
 C      -10.283276948    13.233840086     1.521899820
 C       -9.774686490    12.531792646     0.414887714
 C       -8.402970237    12.477741717     0.186956326
 N      -11.655117374    13.283746041     1.829573966
 C      -12.189921522    14.588410318     2.278870072
 C      -12.574003151    12.547740831     0.949112728
 C      -11.677638172    15.839049790     1.540740741
 C      -12.394608013    16.167599666     0.215845499
 N      -11.581030152    16.144730085    -1.024734648
 C      -10.246317426    16.639240455    -0.842748956
 C      -10.048274445    18.025574557    -0.910310354
 C       -8.771528440    18.549523393    -0.739895416
 C       -7.683010648    17.717185512    -0.445325204
 C       -7.890471400    16.335220645    -0.393963781
 C       -9.147482424    15.798338666    -0.629595907
 C      -11.625718185    14.848044433    -1.726796056
 C       -6.345860729    18.294691279    -0.270205413
 C       -5.267324858    17.552922721     0.011983854
Si       -3.549232978    18.133778985     0.255804792
 C       -2.579058606    17.261521210    -1.050468441
 C       -2.913446160    17.427645917    -2.400304397
 C       -2.186053310    16.772837939    -3.390776761
 C       -1.122479952    15.923380866    -3.056880840
 C       -0.797263090    15.754124276    -1.708453471
 C       -1.516610564    16.417190451    -0.714841976
 C       -0.387865104    15.257805033    -4.127600212
 C        0.654345721    14.431253782    -3.935879873
 C        1.392777747    13.762918670    -5.002001680
 C        1.076428887    13.924768186    -6.354234441
 C        1.808873984    13.266745640    -7.340586615
 C        2.875402434    12.427490620    -6.995246121
 C        3.191995593    12.261839242    -5.642421720
 C        2.457940408    12.921029644    -4.658510468
Si        3.826188496    11.569991957    -8.325379391
 C        2.658953795    10.458372536    -9.271077753
 C        4.552319883    12.857738106    -9.468812388
 C        5.206934139    10.540408872    -7.599657886
 C       -3.372344026    19.977355759     0.041593666
 C       -2.999039988    17.638080751     1.970052487
 C       -2.724089945    13.483172616     0.742033525
 C       -3.377199134    13.345139723    -2.243718750
 C       -0.633248302    -0.853178681    -1.537225677
 C       -0.605455472    -0.906171690     1.519149128
 H        0.995840445     2.542034256    -1.220998243
 H        0.157955329     4.820106597    -1.212050574
 H       -3.205862397     3.618601959     1.188871425
 H       -2.399647627     1.324622395     1.213313975
 H       -3.050016282     5.863448005     0.574655664
 H       -0.614903333     6.690898061    -1.149791752
 H       -0.457957792     8.936428718    -1.760519262
 H       -1.262107556    11.233009563    -1.778018490
 H       -4.676826029    10.006069321     0.629028030
 H       -3.825330680     7.728889985     0.633954513
 H       -6.046713162    12.009544392    -1.009520553
 H       -5.503323537    13.737790251     1.533221905
 H       -7.328691994    14.370836958     2.793107563
 H       -9.736888905    14.387890978     3.275650475
 H      -10.438806237    12.006054255    -0.263167648
 H       -8.033067149    11.902954045    -0.664284465
 H      -13.569276427    12.499378876     1.425267067
 H      -12.227529330    11.503828240     0.841812547
 H      -12.689256817    12.992238891    -0.051781350
 H      -12.666978092    14.649715907    -2.030515289
 H      -11.254217871    13.995004263    -1.138368464
 H      -11.024538385    14.918661743    -2.651004450
 H      -10.895872995    18.678173523    -1.109291951
 H       -8.622861975    19.625126278    -0.821428862
 H       -7.060069798    15.654529568    -0.186179766
 H       -9.275313257    14.716672409    -0.617874839
 H       -6.313995274    19.383038672    -0.388133272
 H       -5.352460675    16.454875791     0.120118340
 H       -3.743545852    18.066354143    -2.718152136
 H       -2.453006225    16.919428182    -4.435820740
 H        0.023357789    15.099176436    -1.421031729
 H       -1.212054974    16.248944574     0.321963898
 H       -0.747010103    15.479089594    -5.136701581
 H        1.013263987    14.211641346    -2.925591512
 H        0.251122931    14.571013571    -6.648336615
 H        1.514984058    13.433447438    -8.380946981
 H        4.013105801    11.618712605    -5.314325041
 H        2.719553665    12.778067062    -3.611461583
 H      -13.300417403    14.555861851     2.245068430
 H      -11.922638704    14.675594366     3.361524862
 H      -11.775045637    16.707923422     2.221986885
 H      -10.583156485    15.754873060     1.376905057
 H      -13.272433679    15.503002092     0.074948383
 H      -12.801513060    17.206565044     0.275108862
 H        2.269016892    -1.027581871     0.066523495
 H        2.269016494     0.568018589     0.859848208
 H        2.279409176     0.454786959    -0.918703977
 H        3.182387467     9.922696977   -10.082493241
 H        1.832961694    11.031722560    -9.727937193
 H        2.205334891     9.698779396    -8.608575950
 H        3.765855605    13.481444248    -9.929299123
 H        5.234615330    13.536075104    -8.924739736
 H        5.129075246    12.390509382   -10.286340268
 H        4.817743915     9.760599851    -6.921110126
 H        5.781370023    10.029463791    -8.393203437
 H        5.917872626    11.161977360    -7.026555655
 H       -3.698424239    20.302522234    -0.962988883
 H       -3.975419350    20.529942002     0.784147085
 H       -2.321220259    20.296390004     0.164178026
 H       -3.081719576    16.548337580     2.131593068
 H       -1.950319416    17.929003042     2.157555111
 H       -3.619883772    18.131083775     2.740891258
 H       -2.836476212    13.003101845     1.730068079
 H       -1.644345472    13.521903342     0.512608847
 H       -3.085183192    14.523098034     0.824342684
 H       -3.891656917    12.797836901    -3.052679187
 H       -3.752117933    14.387555040    -2.254351656
 H       -2.303158349    13.390454957    -2.502595226
 H       -0.287499433    -0.340961641    -2.453042354
 H       -0.287092631    -1.900298355    -1.588553709
 H       -1.737808874    -0.864195578    -1.564238864
 H       -0.315340579    -0.375164164     2.443838148
 H       -1.704605786    -1.009490579     1.523582574
 H       -0.178664984    -1.923522961     1.573288438

