139   

Si        0.000000000     0.000000000     0.000000000
 C        1.868724400     0.000000000     0.000000000
 C       -0.655739956     1.726003665     0.000000000
 C        0.188556643     2.836778291    -0.090804931
 C       -0.335887657     4.129753515    -0.088422786
 C       -1.711669529     4.341903791     0.031718012
 C       -2.555987691     3.227348339     0.126409895
 C       -2.037831015     1.935501795     0.101570554
 C       -2.309136596     5.672800806     0.039521944
 C       -1.620377738     6.821784079    -0.065582780
 C       -2.221850522     8.151199934    -0.057353870
 C       -3.599586466     8.354840701     0.063273155
 C       -4.132626747     9.643197004     0.066618867
 C       -3.297968001    10.757742346    -0.070741237
 C       -1.918389301    10.555592771    -0.197095501
 C       -1.387243746     9.268164874    -0.186170069
Si       -4.011345330    12.463727502    -0.065493933
 C       -2.648001093    13.611328976    -0.488559468
 C       -2.623749825    14.434705452    -1.544262192
 C       -1.515850801    15.339798854    -1.852179691
 C       -1.602683443    16.155792069    -2.985834187
 C       -0.580876439    17.031395772    -3.323139870
 C        0.528292561    17.197081784    -2.468918857
 C        0.602447895    16.393946476    -1.309878078
 C       -0.392212998    15.471056628    -1.027985184
 N        1.580742375    18.071507618    -2.773675483
 C        1.464655130    18.957441459    -3.940330644
 C        2.301215659    18.652595176    -1.629198087
 C        0.326965374    19.992527549    -3.895994165
 C        0.663675987    21.242535784    -3.062660135
 N       -0.445041530    21.720311538    -2.208308713
 C       -0.707040256    20.835457768    -1.109896383
 C        0.127223630    20.984534416     0.010023223
 C       -0.054546942    20.171024714     1.117488928
 C       -1.044542456    19.176194220     1.127313594
 C       -1.870792746    19.036737289     0.009872387
 C       -1.718256113    19.868082424    -1.096482715
 C       -1.644178338    22.095800841    -2.979219396
 C       -1.181787127    18.352224463     2.331089702
 C       -2.075121537    17.367318143     2.492801990
Si       -2.199682738    16.368622321     4.025024157
 C       -1.932144544    14.562259092     3.793724781
 C       -1.147709382    14.015676655     2.773791760
 C       -0.992742130    12.632663943     2.664041679
 C       -1.618016684    11.766401962     3.568696524
 C       -2.395881715    12.320741406     4.591811831
 C       -2.546258184    13.698635710     4.709938613
 C       -1.448303685    10.319997490     3.443616964
 C       -2.019878260     9.446683378     4.290224433
 C       -1.913174461     7.994380822     4.251781508
 C       -1.175084437     7.298195209     3.293583298
 C       -1.117681802     5.903274167     3.318338248
 C       -1.775957057     5.179926245     4.317476410
 C       -2.513618625     5.878111994     5.282800319
 C       -2.586731823     7.266237161     5.243586479
Si       -1.722075151     3.336589735     4.381688030
 C       -3.259403874     2.652201637     3.573199781
 C       -0.189467499     2.719473075     3.514710171
 C       -1.660232505     2.775477689     6.167026883
 C       -0.950402262    16.941706500     5.293824526
 C       -3.933449152    16.659391809     4.672046195
 C       -5.399722308    12.560908195    -1.311401710
 C       -4.650981613    12.875836698     1.636329324
 C       -0.622516744    -0.874099379    -1.529465678
 C       -0.617157382    -0.874000844     1.533135021
 H        1.273684425     2.733805898    -0.174453954
 H        0.342127902     4.976857164    -0.176069834
 H       -3.632408997     3.371748038     0.208347044
 H       -2.746807745     1.105604669     0.169275185
 H       -3.397825450     5.684850340     0.149024221
 H       -0.531867075     6.811951633    -0.172305328
 H       -4.269388722     7.503446422     0.168388535
 H       -5.215890153     9.739716653     0.178149293
 H       -1.218755224    11.387786978    -0.321327467
 H       -0.312442044     9.132529547    -0.286944121
 H       -1.814808173    13.587418046     0.232717999
 H       -3.442233645    14.489019791    -2.273313638
 H       -2.473961981    16.084953842    -3.637732904
 H       -0.656213239    17.586963316    -4.251644780
 H        1.446109276    16.485520598    -0.632667623
 H       -0.297372490    14.848401375    -0.136934648
 H        3.010996297    19.425298146    -1.963221183
 H        2.896630139    17.861317765    -1.137325860
 H        1.623193714    19.100637193    -0.879549516
 H       -1.380357095    22.935262655    -3.645392174
 H       -2.420778733    22.459630368    -2.283571505
 H       -2.074153783    21.289172066    -3.591287743
 H        0.895688114    21.755731714     0.004189469
 H        0.584642628    20.306720824     1.989737374
 H       -2.643710811    18.266480429    -0.005985297
 H       -2.377312217    19.745350533    -1.951818382
 H       -0.455056339    18.623832560     3.110407822
 H       -2.792406718    17.101855352     1.700619873
 H       -0.638232409    14.650024532     2.042289768
 H       -0.375950026    12.222109117     1.866188589
 H       -2.893311843    11.674302855     5.313505891
 H       -3.163971838    14.062257013     5.536521466
 H       -0.837590281     9.984175858     2.603189740
 H       -2.641153337     9.817048056     5.115634503
 H       -0.654764723     7.841302978     2.506203549
 H       -0.543594143     5.408548123     2.528474954
 H       -3.051390680     5.366947611     6.085664643
 H       -3.171658030     7.791171858     5.996218134
 H        2.443095224    19.468520909    -4.088065410
 H        1.334361810    18.301956475    -4.836659627
 H        0.063125583    20.288922374    -4.927294853
 H       -0.586667657    19.514153671    -3.484259345
 H        1.539434353    21.057113222    -2.402998355
 H        0.953226423    22.085747772    -3.728187017
 H        2.266374373    -1.030518399     0.023956582
 H        2.274667263     0.530405006     0.879876416
 H        2.274630713     0.487817469    -0.903977635
 H       -3.281431968     1.549893897     3.622649557
 H       -3.306567438     2.940374405     2.506960645
 H       -4.174402245     3.031562562     4.060507905
 H       -0.216237045     2.964435813     2.435146559
 H        0.723500301     3.174291683     3.937434870
 H       -0.089188960     1.624071506     3.601946590
 H       -2.580580904     3.043438100     6.713287298
 H       -1.541445280     1.680069547     6.235465223
 H       -0.809415154     3.236732226     6.699775481
 H        0.084051493    16.817716489     4.926459119
 H       -1.093472767    18.005622146     5.551751757
 H       -1.036761867    16.358767205     6.228315702
 H       -4.690367803    16.203595844     4.008931413
 H       -4.072443291    16.236265724     5.681176098
 H       -4.155065205    17.740351006     4.734052266
 H       -5.047971603    12.297322710    -2.325322503
 H       -6.220383450    11.867672332    -1.056787006
 H       -5.826878926    13.578138785    -1.357937894
 H       -3.839047282    12.828838604     2.390437574
 H       -5.072658823    13.895564720     1.673261434
 H       -5.436389314    12.170347698     1.957065399
 H       -0.276758145    -0.367466332    -2.448862192
 H       -0.265006011    -1.917967281    -1.570366981
 H       -1.726202176    -0.897635053    -1.562563738
 H       -0.270976164    -0.364895955     2.451264904
 H       -1.720566071    -0.900971261     1.568392612
 H       -0.256221957    -1.916621886     1.573802804

