139   

Si        0.000000000     0.000000000     0.000000000
 C        1.869291931     0.000000000     0.000000000
 C       -0.616801037     1.740274976     0.000000000
 C       -0.036978450     2.687092700    -0.852755304
 C       -0.492063938     4.004609891    -0.863821021
 C       -1.541874832     4.404871572    -0.031730471
 C       -2.123995973     3.455004674     0.817057139
 C       -1.668227236     2.138597059     0.833557598
 C       -2.050772909     5.772297462    -0.009695251
 C       -1.579029692     6.776095687    -0.768260843
 C       -2.088182246     8.143176193    -0.745880152
 C       -3.138250361     8.542583811     0.086723692
 C       -3.594283724     9.860134426     0.076515852
 C       -3.000637222    10.809052119    -0.762281969
 C       -1.948169017    10.412587355    -1.596123156
 C       -1.500112807     9.094149088    -1.589830064
Si       -3.596957348    12.555590671    -0.783203249
 C       -2.363264059    13.555864220    -1.691281199
 C       -2.614997069    14.256343887    -2.804620017
 C       -1.610956090    15.050505894    -3.515075476
 C       -1.998226437    15.742226580    -4.673839369
 C       -1.087915312    16.507078608    -5.382326272
 C        0.254333447    16.580652271    -4.959082818
 C        0.645156601    15.895528543    -3.800323402
 C       -0.288118466    15.153809859    -3.082510217
 N        1.135607100    17.384128962    -5.732724673
 C        1.311669984    16.933598912    -7.127102528
 C        2.397179168    17.764156454    -5.076911675
 C        2.266390887    15.741069786    -7.340562393
 C        1.684191787    14.408697275    -6.832923814
 N        0.412663896    14.090975755    -7.518028029
 C       -0.424444705    13.148769165    -6.850432652
 C       -0.003895371    12.350439868    -5.776528502
 C       -0.889393492    11.456780084    -5.184501391
 C       -2.217043436    11.358269665    -5.616388761
 C       -2.637731995    12.178659138    -6.670308914
 C       -1.763667940    13.069312082    -7.275253500
 C        0.611963984    13.759432407    -8.945376900
 C       -3.110235443    10.399765483    -4.958544560
 C       -4.395475965    10.223699152    -5.290852677
Si       -5.552144890     9.040424431    -4.500577391
 C       -6.143659156     7.871177157    -5.802305039
 C       -5.445282312     7.733289201    -7.006244912
 C       -5.893207301     6.850140633    -7.987890404
 C       -7.042063201     6.080639457    -7.785398024
 C       -7.736622968     6.216173802    -6.575824906
 C       -7.293085015     7.098836370    -5.594295404
 C       -7.547884365     5.144004930    -8.783588466
 C       -6.978516027     4.919974540    -9.980094034
 C       -7.484159620     3.983439909   -10.978349524
 C       -8.633751217     3.215159367   -10.777863034
 C       -9.081611200     2.331601229   -11.760134668
 C       -8.386725558     2.195937856   -12.965346590
 C       -7.233110502     2.965496427   -13.169677900
 C       -6.789860289     3.847967722   -12.188493729
Si       -8.953034370     1.036063436   -14.284644153
 C      -10.407728449     0.020000980   -13.696992805
 C       -9.457352833     2.036436837   -15.780543816
 C       -7.544453763    -0.110882480   -14.726412717
 C       -4.728142704     8.057732011    -3.150743703
 C       -7.003022156     9.994244012    -3.810346568
 C       -5.267480351    12.629728986    -1.609766106
 C       -3.715704495    13.200710664     0.966011829
 C       -0.635825236    -0.845128807    -1.540497211
 C       -0.609740030    -0.913851269     1.512356607
 H        0.783683132     2.433025569    -1.529593351
 H       -0.021369624     4.722850591    -1.532909013
 H       -2.943027779     3.744934716     1.472809804
 H       -2.160452790     1.442737125     1.518434698
 H       -2.874955802     5.941832032     0.689601677
 H       -0.755790705     6.605461652    -1.468356033
 H       -3.610462001     7.822917873     0.752530674
 H       -4.420701856    10.113217341     0.745895576
 H       -1.450728710    11.117292397    -2.273033751
 H       -0.681826764     8.802434193    -2.245668089
 H       -1.360460844    13.549116408    -1.235770758
 H       -3.603018332    14.280068286    -3.284019185
 H       -3.028351700    15.675639237    -5.024075161
 H       -1.401222647    17.047831609    -6.273130587
 H        1.671704753    15.936372036    -3.451283693
 H        0.032802077    14.634087586    -2.179176525
 H        2.916247555    18.506403050    -5.707134006
 H        3.085990183    16.926739747    -4.886840584
 H        2.167407068    18.256427718    -4.114900576
 H        0.966293496    14.660458062    -9.473467892
 H       -0.343868449    13.465615162    -9.409581604
 H        1.335135016    12.944593198    -9.106580649
 H        1.017279472    12.401358096    -5.411683347
 H       -0.537732710    10.829392306    -4.364974268
 H       -3.669695037    12.129411057    -7.018781316
 H       -2.111013868    13.719272455    -8.075461857
 H       -2.623811745     9.834720572    -4.150476121
 H       -4.858161243    10.811692092    -6.100014585
 H       -4.536094010     8.305824996    -7.218190812
 H       -5.334427838     6.763140867    -8.917917846
 H       -8.632726530     5.624944130    -6.398161826
 H       -7.874418445     7.161223105    -4.670485817
 H       -8.456731343     4.610172135    -8.490537208
 H       -6.069223655     5.453374920   -10.272628738
 H       -9.192621282     3.300609827    -9.847559154
 H       -9.987630085     1.758421343   -11.545457501
 H       -6.649497464     2.901784073   -14.092332293
 H       -5.892314177     4.437899224   -12.365283185
 H        0.309450372    16.672152909    -7.545393950
 H        1.678618330    17.811399025    -7.705861997
 H        2.506103082    15.666294036    -8.417708417
 H        3.231220752    15.924724473    -6.832917162
 H        2.440815735    13.602979785    -6.953058083
 H        1.476909007    14.504944831    -5.739774347
 H        2.269381009    -1.029164616     0.020554475
 H        2.268686823     0.530001389     0.883819418
 H        2.278403631     0.497072872    -0.896922670
 H      -10.725144021    -0.703764069   -14.468865344
 H      -11.280005890     0.655847951   -13.463201135
 H      -10.157338967    -0.555807374   -12.788043046
 H      -10.289440549     2.723044097   -15.540455223
 H       -8.620897073     2.652107992   -16.156208976
 H       -9.790594985     1.384875431   -16.607173833
 H       -7.209010898    -0.688225980   -13.845609960
 H       -7.844179005    -0.834465432   -15.504617875
 H       -6.670627820     0.446116877   -15.107711023
 H       -3.896637533     7.443557435    -3.543429073
 H       -4.307162585     8.719723503    -2.367667563
 H       -5.436135388     7.369750176    -2.656140284
 H       -7.519062938    10.571300312    -4.597743800
 H       -7.746093885     9.319335837    -3.351138555
 H       -6.677238473    10.706850045    -3.030981211
 H       -5.188077124    12.372561201    -2.683664674
 H       -5.979623570    11.924842441    -1.146237345
 H       -5.705654340    13.641319253    -1.541629759
 H       -2.749082196    13.114513406     1.494296236
 H       -4.004417575    14.267340525     0.978736531
 H       -4.466214632    12.645451207     1.554628820
 H       -0.289791289    -0.330747028    -2.454979462
 H       -0.293112823    -1.893219036    -1.596009387
 H       -1.740701126    -0.853000630    -1.566539369
 H       -0.311292659    -0.397139611     2.442214582
 H       -1.710183492    -1.005782069     1.517590351
 H       -0.194182593    -1.936604093     1.554183128

