139   

Si        0.000000000     0.000000000     0.000000000
 C        1.870909491     0.000000000     0.000000000
 C       -0.593836833     1.746941925     0.000000000
 C       -0.056117729     2.656356279    -0.918474110
 C       -0.489137554     3.980447868    -0.936996141
 C       -1.488428642     4.420167166    -0.062681670
 C       -2.030583846     3.506640934     0.848953012
 C       -1.584427590     2.186817146     0.885028011
 C       -1.966532870     5.799531073    -0.054179737
 C       -1.498626986     6.757488481    -0.871575612
 C       -1.949276956     8.143645737    -0.893711010
 C       -2.942406443     8.642248519    -0.046380697
 C       -3.333453522     9.980108660    -0.112927706
 C       -2.723263586    10.853124197    -1.019807854
 C       -1.722256733    10.356018273    -1.864913003
 C       -1.341983594     9.018938566    -1.803498083
Si       -3.208859781    12.627458989    -1.141022119
 C       -3.214072585    13.491822624     0.471222635
 C       -2.913394833    12.983237727     1.672608878
 C       -2.949226802    13.767813084     2.911352147
 C       -2.615930114    13.139969554     4.120744603
 C       -2.635226492    13.839738064     5.317065494
 C       -2.921526727    15.216004170     5.321409276
 C       -3.236661582    15.855447463     4.116730689
 C       -3.264128901    15.128523648     2.930444174
 N       -2.922850743    15.868124453     6.593801583
 C       -1.554948995    16.046252674     7.130819674
 C       -3.726256426    17.101430798     6.661847459
 C       -0.680936770    17.040465879     6.338034082
 C        0.817225156    16.874919705     6.661884052
 N        1.586772759    16.079073595     5.678035503
 C        1.124113657    14.741988032     5.538784166
 C        1.149690465    13.922861049     6.685062037
 C        0.711508702    12.611062368     6.611127442
 C        0.277823988    12.062045758     5.395244184
 C        0.292740502    12.868017568     4.254106427
 C        0.726944912    14.187842405     4.313946115
 C        1.810120713    16.811780952     4.418954533
 C       -0.174607447    10.669564023     5.376890642
 C       -0.611204312    10.031370654     4.283214866
Si       -1.178110942     8.289948211     4.255050672
 C       -0.147426899     7.285010337     3.108054332
 C        0.470131808     7.864997479     1.995210517
 C        1.248058552     7.090199019     1.135364936
 C        1.417678305     5.722710444     1.366457292
 C        0.794407622     5.143318843     2.479310259
 C        0.019544648     5.914226851     3.340767422
 C        2.219435864     4.866614271     0.500374231
 C        2.874246000     5.277061058    -0.598785423
 C        3.670707408     4.399157559    -1.449450410
 C        3.820048076     3.033949394    -1.185022623
 C        4.588570266     2.225579451    -2.019525196
 C        5.221301834     2.764974437    -3.146281292
 C        5.070124908     4.129388002    -3.416090922
 C        4.303098168     4.935869125    -2.577321030
Si        6.231825422     1.665950408    -4.230386595
 C        7.605682576     0.916027916    -3.208844600
 C        5.125168854     0.317326186    -4.902828372
 C        6.971447366     2.626626931    -5.652498514
 C       -1.133794135     7.551022071     5.971518538
 C       -2.938120825     8.297655882     3.620870648
 C       -2.034550035    13.561205990    -2.258311821
 C       -4.939524963    12.700209772    -1.844778764
 C       -0.634080461    -0.839559654    -1.543649868
 C       -0.613913266    -0.909002071     1.513266290
 H        0.719597396     2.372560861    -1.636775331
 H       -0.039010288     4.673362521    -1.647335322
 H       -2.804793184     3.829507599     1.542001174
 H       -2.037577584     1.521766097     1.624204283
 H       -2.743937191     6.017675521     0.682114937
 H       -0.712469412     6.525714643    -1.598394914
 H       -3.428481662     7.977287871     0.666057188
 H       -4.124091390    10.312243345     0.566339394
 H       -1.207069140    10.988280555    -2.593426558
 H       -0.564090873     8.652197551    -2.470739672
 H       -3.511670203    14.550391054     0.369898669
 H       -2.611751131    11.937783338     1.821056229
 H       -2.373041955    12.074406382     4.132798443
 H       -2.412260778    13.333230765     6.255563642
 H       -3.462603060    16.917056436     4.096966176
 H       -3.525379481    15.642297541     2.005361641
 H       -3.812416838    17.403009767     7.720279010
 H       -4.747021246    16.888084761     6.298738751
 H       -3.319711139    17.949240038     6.091078876
 H        2.318416418    17.764430852     4.647223048
 H        0.892259583    17.034063668     3.852395142
 H        2.493041816    16.228507310     3.775653336
 H        1.518677746    14.323964132     7.625877323
 H        0.720041769    11.994565769     7.509925750
 H       -0.027083635    12.463771101     3.291273113
 H        0.715899507    14.786271857     3.407516301
 H       -0.119820325    10.188351598     6.362535714
 H       -0.645925560    10.534309763     3.303112008
 H        0.368649231     8.929139337     1.761303681
 H        1.721640838     7.562189240     0.276693501
 H        0.909214778     4.077401090     2.669951178
 H       -0.442311126     5.406128492     4.191242594
 H        2.251673182     3.815328586     0.807660361
 H        2.842645470     6.323144642    -0.912936109
 H        3.337029265     2.591583372    -0.314076532
 H        4.673047936     1.166886994    -1.757911774
 H        5.541011905     4.603952675    -4.280917332
 H        4.198781267     5.995104588    -2.803722673
 H       -1.646955085    16.370551648     8.189767523
 H       -1.068187952    15.042116589     7.149070929
 H       -0.851765358    16.896305078     5.252605076
 H       -1.000003783    18.074953715     6.553185211
 H        1.302099652    17.874359946     6.735345566
 H        0.951505096    16.404313542     7.661522916
 H        2.269051445    -1.029642048     0.014386452
 H        2.270813237     0.523790535     0.886748565
 H        2.275032201     0.499908172    -0.899300163
 H        8.247146344     0.256867264    -3.819701468
 H        7.208029936     0.314041951    -2.372868011
 H        8.252104641     1.699384182    -2.772623973
 H        4.666246326    -0.274014326    -4.090990127
 H        4.303427938     0.740458180    -5.508613983
 H        5.688375591    -0.380310345    -5.547143923
 H        7.634519724     3.434208478    -5.294056189
 H        7.574263527     1.970279606    -6.305470804
 H        6.188702230     3.087547715    -6.280812881
 H       -0.097247945     7.468773495     6.345801643
 H       -1.701353768     8.168492072     6.690241361
 H       -1.573575128     6.538849312     5.991150788
 H       -3.007007759     8.810383766     2.643560018
 H       -3.322113579     7.271229157     3.491544669
 H       -3.611945786     8.823461597     4.320716855
 H       -0.996950166    13.512131757    -1.881308655
 H       -2.041421436    13.157253847    -3.285642347
 H       -2.310383111    14.628939417    -2.322987843
 H       -5.663242211    12.189983295    -1.183576815
 H       -5.282261437    13.741540391    -1.973331150
 H       -4.988620088    12.206260394    -2.831807200
 H       -0.282538205    -0.325300976    -2.456415171
 H       -0.297702810    -1.889238658    -1.600003878
 H       -1.738636033    -0.841496854    -1.573303179
 H       -0.292637328    -0.408587075     2.444067535
 H       -1.716228262    -0.972494021     1.529768481
 H       -0.225928956    -1.942574866     1.542954781

