139   

Si        0.000000000     0.000000000     0.000000000
 C        1.868806927     0.000000000     0.000000000
 C       -0.651381567     1.727770945     0.000000000
 C        0.192632583     2.837335683     0.096540377
 C       -0.328698907     4.132198590     0.094004422
 C       -1.705022951     4.345224775    -0.008284625
 C       -2.550973259     3.230738944    -0.102608272
 C       -2.034046045     1.938923155    -0.094793301
 C       -2.305899445     5.673871443    -0.016092056
 C       -1.634241108     6.834774070     0.071547242
 C       -2.272484188     8.148237810     0.060337435
 C       -3.659123503     8.299311200    -0.044613450
 C       -4.239506557     9.565096955    -0.052677874
 C       -3.442819536    10.713675406     0.038813588
 C       -2.056664191    10.567156248     0.150740780
 C       -1.480344234     9.297411696     0.170642804
Si       -4.272815917    12.360286473     0.022722948
 C       -3.081875467    13.738144073     0.192238888
 C       -3.095574515    14.635412386     1.187765997
 C       -2.138654128    15.735609930     1.316422828
 C       -2.256435262    16.611669058     2.405509127
 C       -1.376043344    17.667788099     2.571841699
 C       -0.313562694    17.865286673     1.664527813
 C       -0.196704955    16.988650471     0.571185239
 C       -1.110604285    15.955987932     0.397410928
 N        0.575229409    18.946912775     1.848321656
 C        0.865442665    19.325963039     3.244253833
 C        1.775970544    18.967855478     0.995767002
 C        1.471210781    18.177167133     4.067807535
 C        1.466599890    18.461563254     5.578675329
 N        0.141998411    18.544855485     6.210913726
 C       -0.745023781    17.470071380     6.098922811
 C       -0.274290963    16.172756212     5.797392796
 C       -1.159975161    15.113989739     5.688353156
 C       -2.530177608    15.280959873     5.940308920
 C       -2.990777677    16.557629174     6.269720732
 C       -2.123240461    17.639128497     6.348230064
 C       -0.430578321    19.897271549     6.269644672
 C       -3.411696278    14.122118845     5.807298973
 C       -4.735364300    14.133017081     6.015646467
Si       -5.821479258    12.662624786     5.841839885
 C       -4.785433297    11.217353289     5.343928214
 C       -5.053667268    10.429463721     4.220526350
 C       -4.231773109     9.349406974     3.897171224
 C       -3.116552924     9.039370404     4.683096645
 C       -2.854016029     9.827256462     5.809752405
 C       -3.680878612    10.895305107     6.143854290
 C       -2.269779200     7.903915752     4.325890040
 C       -1.193105732     7.538816883     5.042571502
 C       -0.303497274     6.422495930     4.750414786
 C       -0.473402291     5.573967433     3.653688192
 C        0.414262664     4.522412058     3.429826286
 C        1.495489073     4.303331738     4.291820397
 C        1.668749986     5.154173859     5.388743508
 C        0.777542706     6.199714679     5.614321235
Si        2.655352927     2.905296345     3.973637921
 C        3.465102585     3.166172569     2.308294750
 C        3.977275938     2.805525716     5.291009891
 C        1.660397873     1.323230030     3.969077727
 C       -6.609059985    12.288331834     7.494791515
 C       -7.157633480    13.034940540     4.592465489
 C       -5.135322226    12.559556864    -1.626295110
 C       -5.522668974    12.420824301     1.402890347
 C       -0.614395801    -0.875424699    -1.532521345
 C       -0.624025645    -0.874111359     1.529188326
 H        1.279256649     2.731198517     0.165604397
 H        0.351408852     4.979954235     0.167504934
 H       -3.626956693     3.374547398    -0.180921115
 H       -2.744174474     1.110606146    -0.167337650
 H       -3.397288502     5.673165115    -0.104203681
 H       -0.544586387     6.849922452     0.160757135
 H       -4.300175593     7.423269347    -0.122853267
 H       -5.328870636     9.616928253    -0.134945494
 H       -1.390837371    11.430902415     0.240672012
 H       -0.400703987     9.202295530     0.274204870
 H       -2.333505589    13.790045682    -0.612939083
 H       -3.828407052    14.606514938     2.007349597
 H       -3.049674468    16.460226110     3.141443969
 H       -1.507805150    18.334571584     3.420409730
 H        0.600983479    17.106311577    -0.154373122
 H       -1.004289901    15.299602736    -0.467354892
 H        2.376990573    19.865095666     1.218521707
 H        1.467187026    19.048765136    -0.062584142
 H        2.417407765    18.080020168     1.115067396
 H        0.362243648    20.661712948     6.241288446
 H       -0.960090490    20.019511871     7.234108617
 H       -1.141773405    20.106528417     5.451797787
 H        0.784845232    15.992244742     5.643538913
 H       -0.778419620    14.128086875     5.414442800
 H       -4.051505733    16.716449392     6.467855137
 H       -2.525963712    18.612410366     6.604997697
 H       -2.870781484    13.217043057     5.487114353
 H       -5.260010179    15.048895458     6.322259609
 H       -5.912132803    10.621762322     3.571780401
 H       -4.453862697     8.752229223     3.013602793
 H       -1.996195460     9.606887696     6.443480097
 H       -3.430573779    11.459215275     7.048782175
 H       -2.563135575     7.362796353     3.423211793
 H       -0.917338735     8.101748937     5.941866178
 H       -1.304040863     5.727308056     2.964775115
 H        0.222744132     3.880009144     2.562663976
 H        2.493057346     5.031331942     6.095565427
 H        0.926000449     6.849955937     6.474226271
 H        1.543494910    20.206589191     3.242061563
 H       -0.086799909    19.680172730     3.701231220
 H        0.908708505    17.240958746     3.858470904
 H        2.505273257    17.975889513     3.733613068
 H        2.034686578    17.655229255     6.105850581
 H        2.022193360    19.402955231     5.789352922
 H        2.266525545    -1.030279397    -0.013897787
 H        2.275790030     0.498345200     0.898940792
 H        2.272787198     0.521326601    -0.885936689
 H        4.106576598     2.311425768     2.033398726
 H        4.099031671     4.071119837     2.313203097
 H        2.713653444     3.296706683     1.509208257
 H        4.592363439     3.722119886     5.320162197
 H        3.538660874     2.664412104     6.294816886
 H        4.659563242     1.956474393     5.107737277
 H        0.755991756     1.428200108     3.341788405
 H        2.245439338     0.471354956     3.583067443
 H        1.321045401     1.063056956     4.987851589
 H       -5.846044281    12.093431123     8.269891795
 H       -7.232303335    13.128733264     7.846124821
 H       -7.254714445    11.393973128     7.434933991
 H       -6.733741238    13.338026825     3.617667915
 H       -7.804563817    12.156635100     4.421341795
 H       -7.806108283    13.859488789     4.938423352
 H       -4.418685137    12.499159221    -2.464642729
 H       -5.894678565    11.774563071    -1.783224914
 H       -5.643839798    13.537605614    -1.695145306
 H       -5.005907328    12.328589582     2.378983063
 H       -6.078970555    13.375260891     1.398168195
 H       -6.259223651    11.602881235     1.329816069
 H       -0.274958004    -0.361572739    -2.450190521
 H       -0.244216392    -1.914745457    -1.577570608
 H       -1.717392674    -0.913444305    -1.565672265
 H       -0.256309430    -0.387488154     2.451588459
 H       -1.727557543    -0.872628870     1.574008494
 H       -0.291055909    -1.926538924     1.553366928

