139   

Si        0.000000000     0.000000000     0.000000000
 C        1.868943365     0.000000000     0.000000000
 C       -0.657481525     1.725060654     0.000000000
 C        0.184561254     2.830947775    -0.148366971
 C       -0.336206354     4.125235916    -0.145141539
 C       -1.708319439     4.342572457     0.003458335
 C       -2.551468534     3.232542102     0.149780149
 C       -2.034719567     1.939980844     0.147370963
 C       -2.298322689     5.677273800     0.012889874
 C       -1.605074701     6.821056395    -0.117196307
 C       -2.195325543     8.155617857    -0.107730094
 C       -3.568710685     8.370956540     0.041104051
 C       -4.090529650     9.663770893     0.044515322
 C       -3.247105264    10.769917958    -0.103042786
 C       -1.871405525    10.558376279    -0.253197902
 C       -1.353486895     9.265624672    -0.255248651
Si       -3.935854470    12.480413501    -0.098722884
 C       -2.562742930    13.629045931     0.288627857
 C       -2.122469371    14.621496096    -0.495474223
 C       -1.016846057    15.513297329    -0.135452231
 C       -0.637605275    16.521443432    -1.033911084
 C        0.402178100    17.387764917    -0.735532841
 C        1.084305516    17.275798516     0.490898056
 C        0.721716266    16.259406412     1.384459962
 C       -0.300602139    15.375961474     1.056443193
 N        2.142686028    18.196096366     0.736311221
 C        1.703399132    19.604232589     0.837280802
 C        3.073059044    17.815028399     1.813826803
 C        0.767546306    19.908101114     2.022684668
 C       -0.709066413    19.972415144     1.585712759
 N       -1.689331758    19.793495655     2.679250828
 C       -1.791950362    18.419029810     3.080779810
 C       -2.685601433    17.629428263     2.339287316
 C       -2.848894558    16.290087897     2.656833758
 C       -2.137334187    15.710063933     3.718878490
 C       -1.261585688    16.508182371     4.458622890
 C       -1.092947988    17.855817436     4.153050462
 C       -1.494816040    20.734080905     3.796908637
 C       -2.349633235    14.288816549     4.009729306
 C       -1.732175733    13.622709697     4.993372838
Si       -1.965832632    11.848471288     5.393535991
 C       -2.586304875    11.727733854     7.125266585
 C       -3.289017712    12.792798145     7.698808058
 C       -3.760340148    12.706387925     9.008138561
 C       -3.547804836    11.553130011     9.768811396
 C       -2.848232359    10.485957689     9.189847191
 C       -2.373330898    10.570163795     7.883290448
 C       -4.022641636    11.418140751    11.142227115
 C       -4.703477106    12.363712804    11.811811305
 C       -5.178790493    12.230011241    13.184981748
 C       -4.965107167    11.079747695    13.948604143
 C       -5.437688188    10.995354160    15.258500712
 C       -6.134750527    12.061625864    15.833734792
 C       -6.350996129    13.216892158    15.069776066
 C       -5.879134744    13.297975516    13.762674272
Si       -6.773418204    11.982972571    17.563650375
 C       -6.334714273    10.351308878    18.362585441
 C       -6.010553375    13.375903454    18.549213392
 C       -8.632822866    12.169708122    17.523473761
 C       -3.183746835    11.021079759     4.248657211
 C       -0.302932942    11.011529621     5.229916378
 C       -4.691948586    12.834515200    -1.767258146
 C       -5.225553394    12.663217644     1.240955743
 C       -0.622289033    -0.871602381    -1.531347886
 C       -0.610130169    -0.881429022     1.531408553
 H        1.266128735     2.724244918    -0.268842549
 H        0.341324818     4.969338131    -0.261410968
 H       -3.623643826     3.379955661     0.266328258
 H       -2.741665714     1.113805215     0.264971158
 H       -3.385171546     5.695399656     0.137493634
 H       -0.518461253     6.802338934    -0.242700046
 H       -4.244104292     7.525259721     0.156601629
 H       -5.171890175     9.769303536     0.167229761
 H       -1.165956103    11.388215939    -0.372063873
 H       -0.281237547     9.119351174    -0.373372961
 H       -2.092080538    13.431639467     1.268033575
 H       -2.562463415    14.847355119    -1.475081337
 H       -1.164847274    16.626932649    -1.981740824
 H        0.703828971    18.150255386    -1.449974945
 H        1.223313920    16.154087569     2.342233350
 H       -0.557833974    14.583194340     1.763672742
 H        3.949737700    18.484666605     1.776028087
 H        3.440198101    16.789483827     1.630607953
 H        2.645252583    17.860385093     2.827246573
 H       -1.607897083    21.761794945     3.410861212
 H       -0.523229007    20.658707994     4.306192521
 H       -2.292956142    20.571644202     4.542642544
 H       -3.238661197    18.079160321     1.515572101
 H       -3.537641130    15.682888482     2.067634978
 H       -0.702376932    16.080202383     5.290907490
 H       -0.413138209    18.460752425     4.745425432
 H       -3.085339084    13.816354193     3.344922863
 H       -1.004029778    14.126111870     5.650464741
 H       -3.486548498    13.720271442     7.150779594
 H       -4.300658087    13.549922868     9.434244421
 H       -2.672404330     9.579086877     9.765403569
 H       -1.833618439     9.706509041     7.485027579
 H       -3.783033043    10.462161767    11.616945570
 H       -4.943382985    13.319189882    11.335769258
 H       -4.425297116    10.234881605    13.524466353
 H       -5.239161841    10.069752876    15.805783619
 H       -6.890008659    14.081969775    15.466343968
 H       -6.057171548    14.202918325    13.184475061
 H        2.620567296    20.232566381     0.905451139
 H        1.219858778    19.882327134    -0.126041062
 H        0.886953559    19.132488238     2.804824130
 H        1.060636128    20.859949126     2.499404165
 H       -0.926755468    20.952981017     1.107882685
 H       -0.913344452    19.191123649     0.815211340
 H        2.266683570    -1.029925247     0.042547591
 H        2.273085557     0.545828947     0.871373634
 H        2.275954812     0.472392449    -0.911635432
 H       -6.728958755    10.293899747    19.393025524
 H       -5.240719198    10.209491155    18.419894653
 H       -6.755803572     9.498335700    17.801129641
 H       -4.908882965    13.290704899    18.574643105
 H       -6.254343602    14.361477047    18.114814051
 H       -6.368858068    13.373230028    19.593577121
 H       -9.103370201    11.356327885    16.941735925
 H       -9.062205032    12.143615835    18.540313721
 H       -8.934452131    13.124465529    17.057637198
 H       -4.165789742    11.526241417     4.259191696
 H       -2.813456383    11.010006360     3.206341750
 H       -3.355153279     9.968672863     4.541114629
 H        0.430348903    11.422677464     5.945883016
 H       -0.376038728     9.925422565     5.415014126
 H        0.111815577    11.145812963     4.213635006
 H       -3.945046274    12.739253427    -2.576592916
 H       -5.510835918    12.129186561    -1.995633000
 H       -5.109547640    13.855816111    -1.815120096
 H       -4.822235041    12.390429148     2.233722447
 H       -5.591364745    13.704202824     1.303982351
 H       -6.100108037    12.017023452     1.050676299
 H       -0.276637842    -0.363280612    -2.449862095
 H       -0.265309766    -1.915595284    -1.573809633
 H       -1.726091088    -0.893911692    -1.563576658
 H       -0.272380857    -0.366603236     2.449318437
 H       -1.712889366    -0.925030653     1.564572552
 H       -0.234327910    -1.918879961     1.574176617

