139   

Si        0.000000000     0.000000000     0.000000000
 C        1.868915548     0.000000000     0.000000000
 C       -0.585043489     1.751309538     0.000000000
 C       -0.255812821     2.589785801     1.072047816
 C       -0.685910679     3.915722753     1.094647791
 C       -1.462775976     4.433601181     0.054125859
 C       -1.793901451     3.592120551    -1.015635152
 C       -1.359953419     2.268236157    -1.044387495
 C       -1.934124536     5.814273316     0.037165370
 C       -1.681327510     6.721928725     0.995712720
 C       -2.154900364     8.102407807     0.974807649
 C       -1.819631441     8.948548115     2.040050741
 C       -2.249831749    10.273394685     2.061846015
 C       -3.020786674    10.784537490     1.011372789
 C       -3.359035997     9.941158751    -0.052563361
 C       -2.935031514     8.613131450    -0.066175436
Si       -3.602030610    12.535734885     1.018128074
 C       -5.035430878    12.692581006    -0.109757171
 C       -5.078746177    13.492470446    -1.183119226
 C       -6.228712352    13.612353983    -2.080206660
 C       -6.148797053    14.485775489    -3.170335734
 C       -7.210055289    14.637833267    -4.052361712
 C       -8.444195154    14.011119055    -3.795668169
 C       -8.535043879    13.153139971    -2.677206881
 C       -7.436293352    12.939538730    -1.860733042
 N       -9.553462559    14.128442366    -4.651183062
 C       -9.455208929    14.965877827    -5.855040503
 C      -10.865820798    14.175359294    -3.981775766
 C       -9.236413560    16.476688768    -5.653944250
 C      -10.499910498    17.249696848    -5.233079298
 N      -10.295057006    18.235773037    -4.148486484
 C      -10.057481796    17.602249884    -2.878846802
 C      -11.195151387    17.377162852    -2.089862806
 C      -11.063486074    16.771223583    -0.849081145
 C       -9.811183326    16.336439243    -0.389895639
 C       -8.683710554    16.568348071    -1.181679026
 C       -8.797658394    17.219609076    -2.406125760
 C       -9.294113630    19.265445652    -4.484526685
 C       -9.735214349    15.703334204     0.929450099
 C       -8.608416718    15.243703119     1.488256986
Si       -8.536241053    14.454645433     3.140977398
 C       -7.892373532    12.735924284     2.995025859
 C       -7.974291833    12.035409547     1.786539112
 C       -7.482818109    10.734760319     1.690185383
 C       -6.882828285    10.113748109     2.792563084
 C       -6.805305905    10.817412427     3.999039547
 C       -7.313958060    12.110262283     4.104730535
 C       -6.379143733     8.750779653     2.655953787
 C       -5.806547517     8.062375256     3.657738859
 C       -5.292264973     6.701958898     3.560223100
 C       -5.343340012     5.953530792     2.382591587
 C       -4.835878448     4.654116069     2.344097584
 C       -4.301708859     4.065509356     3.493994096
 C       -4.256952466     4.812256900     4.679171008
 C       -4.737123380     6.117620960     4.707257071
Si       -3.621959043     2.350924153     3.482142886
 C       -3.701317488     1.640304785     1.759879009
 C       -1.865836626     2.373572563     4.120556520
 C       -4.672240359     1.294478480     4.616133887
 C       -7.373284367    15.477174978     4.189074331
 C      -10.221869569    14.380284838     3.941445888
 C       -4.135326613    13.039882550     2.732565406
 C       -2.182728426    13.618926208     0.462161370
 C       -0.625446988    -0.908774905    -1.508313596
 C       -0.631535624    -0.854909423     1.538332827
 H        0.348570630     2.241319745     1.914711801
 H       -0.410375547     4.551720640     1.934910666
 H       -2.395606785     3.974715360    -1.837729790
 H       -1.646959300     1.661920565    -1.907292125
 H       -2.530143145     6.082745273    -0.839666442
 H       -1.092594625     6.453355903     1.877854893
 H       -1.223524057     8.566110838     2.866217051
 H       -1.967100040    10.883646970     2.923308441
 H       -3.964281540    10.286763772    -0.897145946
 H       -3.217212843     7.974825418    -0.901108699
 H       -5.893223016    12.060758315     0.171892046
 H       -4.236350248    14.131523386    -1.479713497
 H       -5.224353996    15.032828179    -3.358562794
 H       -7.070818508    15.254273793    -4.933809725
 H       -9.466235626    12.637014184    -2.461398190
 H       -7.523175872    12.241783389    -1.025979575
 H      -11.667677913    14.372303980    -4.710267840
 H      -10.914578897    14.942269743    -3.187149152
 H      -11.079492319    13.189673237    -3.530121558
 H       -9.657446484    19.832392981    -5.358622906
 H       -8.288866158    18.881824071    -4.712241381
 H       -9.213222240    19.973960764    -3.641360076
 H      -12.169224511    17.700610857    -2.454301490
 H      -11.948421089    16.622785124    -0.230932396
 H       -7.699189941    16.237823604    -0.844825306
 H       -7.903731941    17.409273874    -2.995186301
 H      -10.712825454    15.639207966     1.426904206
 H       -7.637785059    15.312685671     0.970150599
 H       -8.428942941    12.479887675     0.894303535
 H       -7.562821726    10.197284139     0.746570985
 H       -6.347319193    10.355776753     4.871959235
 H       -7.233945242    12.604546416     5.076562581
 H       -6.488502897     8.310887039     1.661552734
 H       -5.691542698     8.517810597     4.646838572
 H       -5.764818108     6.387142510     1.477669693
 H       -4.877273554     4.125732082     1.387506823
 H       -3.846272314     4.404382901     5.606545181
 H       -4.684115340     6.688087249     5.632159250
 H       -8.612042927    14.555172238    -6.464247224
 H      -10.373313839    14.795117129    -6.462999372
 H       -8.442150174    16.632844959    -4.896596338
 H       -8.834189038    16.906507020    -6.590219572
 H      -10.917442065    17.806001736    -6.101884847
 H      -11.301970433    16.554497290    -4.902642039
 H        2.271670192    -1.027874961    -0.010689343
 H        2.274787505     0.508871792     0.892174781
 H        2.268552998     0.523368158    -0.887683795
 H       -3.341358162     0.597252920     1.736556724
 H       -3.072788818     2.222546333     1.056580513
 H       -4.732504140     1.642617158     1.366052075
 H       -1.252276025     3.108308626     3.568820840
 H       -1.828214715     2.645975507     5.189323633
 H       -1.388183530     1.384672194     4.008055762
 H       -5.722390692     1.266058053     4.274254870
 H       -4.303708059     0.254819644     4.650373238
 H       -4.672362263     1.684950041     5.648446737
 H       -6.348429830    15.468734126     3.775200713
 H       -7.702955455    16.530868608     4.235895856
 H       -7.318705880    15.100366021     5.224699106
 H      -10.931796894    13.790058233     3.334261005
 H      -10.170912473    13.904758102     4.937382064
 H      -10.651175578    15.388680720     4.076766661
 H       -4.944161570    12.379478411     3.103874833
 H       -3.303145096    12.985468594     3.453987923
 H       -4.524337768    14.073547676     2.742424448
 H       -1.841756681    13.345406898    -0.552453162
 H       -2.470429157    14.684508233     0.446603614
 H       -1.315122020    13.516795211     1.137887781
 H       -0.257947214    -0.446444671    -2.441736915
 H       -0.288448170    -1.960885721    -1.507704287
 H       -1.729214960    -0.916286144    -1.548359957
 H       -0.341262531    -0.308927330     2.453551210
 H       -1.734176321    -0.928108204     1.534289446
 H       -0.231324500    -1.880770001     1.619271038

