139   

Si        0.000000000     0.000000000     0.000000000
 C        1.868987869     0.000000000     0.000000000
 C       -0.658992269     1.724440370     0.000000000
 C        0.188167987     2.835224474     0.046847672
 C       -0.335818489     4.128253065     0.045747712
 C       -1.715973043     4.339552098    -0.002529578
 C       -2.564119964     3.224565896    -0.049014116
 C       -2.044304316     1.933280884    -0.047200226
 C       -2.309551379     5.672690251    -0.005645401
 C       -1.612231324     6.820759240     0.036572415
 C       -2.206694474     8.153559225     0.033418914
 C       -3.588190957     8.361806536    -0.014951587
 C       -4.114195187     9.653011411    -0.016152423
 C       -3.266665252    10.764538153     0.031108368
 C       -1.882287798    10.560280796     0.080028978
 C       -1.360437951     9.269206968     0.081473762
Si       -3.953713157    12.475834187     0.029891617
 C       -2.672306886    13.579249453    -0.673739147
 C       -2.101544844    14.619304121    -0.052378732
 C       -1.078277140    15.470990450    -0.664440521
 C       -0.547331408    16.535495208     0.078869380
 C        0.422123750    17.367021975    -0.459035633
 C        0.875147417    17.163057556    -1.776436720
 C        0.360605004    16.090906316    -2.517554176
 C       -0.585348682    15.243405496    -1.951923318
 N        1.871662094    18.050065150    -2.271296127
 C        1.434399118    19.458905136    -2.367933192
 C        2.581977995    17.594031825    -3.479136195
 C        0.298999760    19.715396787    -3.377308115
 C       -1.072471502    19.825571279    -2.682350111
 N       -2.235801496    19.593290016    -3.566755654
 C       -2.409601995    18.198626602    -3.858543387
 C       -3.145014104    17.462453867    -2.915343141
 C       -3.362454313    16.108421957    -3.115609346
 C       -2.864546096    15.460241259    -4.257050039
 C       -2.147005762    16.205173652    -5.195554475
 C       -1.925860673    17.566877118    -5.008473278
 C       -2.246064060    20.463449158    -4.755994669
 C       -3.124977666    14.026284728    -4.416760454
 C       -2.704352062    13.297754690    -5.458268293
Si       -3.005999131    11.505220040    -5.699441506
 C       -3.944585309    11.280910747    -7.270285486
 C       -4.693663563    12.333082926    -7.806956507
 C       -5.403386763    12.162913453    -8.995092426
 C       -5.387340255    10.937592473    -9.666994134
 C       -4.640165192     9.883558766    -9.124138916
 C       -3.927448266    10.051197179    -7.939594857
 C       -6.114131353    10.712936820   -10.912351320
 C       -6.865437956    11.635571502   -11.536960290
 C       -7.591813888    11.409682569   -12.782387490
 C       -7.572074059    10.184552825   -13.455142140
 C       -8.281135964    10.012287298   -14.643199683
 C       -9.034499206    11.061245696   -15.181933121
 C       -9.056679586    12.289105294   -14.509261080
 C       -8.341505209    12.460652292   -13.326355311
Si       -9.971483766    10.827423139   -16.755514529
 C      -10.612034065     9.074080232   -16.858554902
 C      -11.420625565    12.006576945   -16.825568296
 C       -8.814349514    11.164215992   -18.183636164
 C       -1.340743063    10.664550246    -5.809334874
 C       -3.979641125    10.760981406    -4.293179600
 C       -5.461241320    12.582943883    -1.069030968
 C       -4.402272974    12.950756582     1.777506446
 C       -0.614442487    -0.876236567    -1.532436400
 C       -0.618972030    -0.875586685     1.530615940
 H        1.276174245     2.733479846     0.085494749
 H        0.345866871     4.976229363     0.083593201
 H       -3.642622411     3.367210849    -0.086572057
 H       -2.755138060     1.102888518    -0.083836023
 H       -3.402841881     5.685880920    -0.046200056
 H       -0.519085835     6.807566464     0.077689048
 H       -4.267233516     7.512025613    -0.052933121
 H       -5.202184063     9.753153153    -0.057317691
 H       -1.173262438    11.394856072     0.115172125
 H       -0.281634491     9.128382658     0.119935473
 H       -2.381292157    13.306348027    -1.703623984
 H       -2.362642617    14.919456407     0.970221924
 H       -0.899175648    16.713638070     1.094735741
 H        0.845489964    18.172579165     0.136446621
 H        0.682711098    15.914655974    -3.539884640
 H       -0.963118619    14.406517545    -2.544955341
 H        3.457039408    18.247201046    -3.640959503
 H        1.973640750    17.594840019    -4.396778703
 H        2.967084310    16.572507900    -3.310702326
 H       -2.277391668    21.513875339    -4.418899326
 H       -3.170915549    20.272455543    -5.328577866
 H       -1.387607679    20.340406360    -5.431834000
 H       -3.532577446    17.965123143    -2.030019143
 H       -3.925471342    15.542751832    -2.371534504
 H       -1.755323599    15.723953897    -6.091949680
 H       -1.372313910    18.129245039    -5.754291151
 H       -3.719379652    13.600951099    -3.596713126
 H       -2.115312201    13.754666647    -6.270551135
 H       -4.746260303    13.314209483    -7.323064749
 H       -5.975450388    12.998084911    -9.395546987
 H       -4.614982904     8.921224887    -9.631842576
 H       -3.362031479     9.193641110    -7.564181904
 H       -6.008664380     9.706235101   -11.327573367
 H       -6.971444323    12.642165074   -11.121632365
 H       -6.998322065     9.350699534   -13.054284485
 H       -8.224759862     9.031725272   -15.124073104
 H       -9.628004676    13.143807174   -14.881639870
 H       -8.369864764    13.423659519   -12.819585189
 H        1.138926889    19.798544113    -1.350082000
 H        2.328755748    20.064751885    -2.638808803
 H        0.505088108    20.636005513    -3.950532442
 H        0.268565894    18.898073445    -4.124559432
 H       -1.134277782    19.094804079    -1.841104880
 H       -1.197805908    20.835802452    -2.234382254
 H        2.266657536    -1.030599595    -0.020043627
 H        2.274919157     0.492217609     0.901721112
 H        2.273988052     0.526675950    -0.882514255
 H      -11.234335615     8.928545369   -17.759342772
 H      -11.235182552     8.824308888   -15.980634264
 H       -9.789776544     8.338810331   -16.903044641
 H      -12.078218455    11.884703503   -15.945854798
 H      -11.090783288    13.059859072   -16.853090354
 H      -12.035125741    11.830300801   -17.726290628
 H       -7.948890466    10.477554442   -18.170149261
 H       -9.325270881    11.039093793   -19.154347543
 H       -8.417294725    12.194580100   -18.144912921
 H       -0.761454287    11.025712492    -6.677461192
 H       -0.736669246    10.855472002    -4.902994478
 H       -1.445390911     9.570079474    -5.911280088
 H       -4.947440695    11.273406916    -4.149316437
 H       -4.199918417     9.693925461    -4.480048158
 H       -3.416783315    10.813228220    -3.342318825
 H       -5.245002316    12.222300898    -2.091661349
 H       -6.294201202    11.976274734    -0.673110488
 H       -5.822053745    13.624355560    -1.151537129
 H       -3.523249612    12.903111513     2.446045043
 H       -4.807442763    13.976892233     1.828199789
 H       -5.166176978    12.270642887     2.195146710
 H       -0.267093438    -0.366780129    -2.449731125
 H       -0.251898009    -1.918438916    -1.572814449
 H       -1.717715892    -0.905147731    -1.569182782
 H       -0.273739386    -0.366620291     2.449025276
 H       -1.722540083    -0.902115508     1.564341841
 H       -0.258411859    -1.918425021     1.571506440

