139   

Si        0.000000000     0.000000000     0.000000000
 C        1.868489479     0.000000000     0.000000000
 C       -0.657563736     1.723351903     0.000000000
 C        0.152811055     2.814248688    -0.328250672
 C       -0.364112702     4.109929883    -0.322218173
 C       -1.703092003     4.340825481     0.001220842
 C       -2.514704555     3.245737634     0.327695087
 C       -1.999831264     1.952818955     0.330483970
 C       -2.292287915     5.674212940     0.022224876
 C       -1.637596368     6.813543559    -0.259253318
 C       -2.253880871     8.136304198    -0.230199142
 C       -1.477962262     9.259335320    -0.541414067
 C       -2.033557755    10.537818910    -0.523689552
 C       -3.389012553    10.716592944    -0.230955830
 C       -4.171231953     9.592917006     0.064624915
 C       -3.608298774     8.319358904     0.066854643
Si       -4.181343064    12.381029085    -0.192204329
 C       -5.312161770    12.523134888    -1.625954409
 C       -5.235998183    13.429534262    -2.610073862
 C       -6.172483794    13.494191506    -3.734868408
 C       -6.008700421    14.480552214    -4.715227282
 C       -6.874934351    14.575501829    -5.797106216
 C       -7.891224707    13.619810843    -5.980812371
 C       -8.039133869    12.606603893    -5.008004968
 C       -7.202332428    12.561119603    -3.904915775
 N       -8.800722125    13.653334561    -7.049410017
 C       -8.830059815    14.797166006    -7.966522211
 C       -9.144973956    12.352647931    -7.643193827
 C       -7.647148952    14.960020606    -8.936174584
 C       -7.698796553    13.996479703   -10.136893344
 N       -6.366714143    13.697910415   -10.718753812
 C       -5.448811093    13.261152847    -9.711389957
 C       -5.684697590    11.997415306    -9.141075894
 C       -4.835150363    11.511916043    -8.159757000
 C       -3.737092466    12.268322505    -7.721654123
 C       -3.505688069    13.518333634    -8.298636280
 C       -4.344682035    14.013016721    -9.291654365
 C       -5.876008611    14.786602657   -11.582864369
 C       -2.870678174    11.709136166    -6.682427012
 C       -1.795486910    12.332251926    -6.182931131
Si       -0.714631952    11.627699362    -4.882312617
 C       -1.362160103     9.967274869    -4.412113694
 C       -2.662334491     9.849793661    -3.904372933
 C       -3.169083018     8.602696540    -3.543500249
 C       -2.397606049     7.447386889    -3.700380920
 C       -1.100458972     7.567481157    -4.214132755
 C       -0.585895258     8.813736807    -4.563197118
 C       -2.878685768     6.119176187    -3.339243203
 C       -4.095315038     5.850081811    -2.836588647
 C       -4.553886372     4.511003892    -2.482644461
 C       -3.751169669     3.378031269    -2.640121765
 C       -4.223786849     2.113445020    -2.290687312
 C       -5.504523453     1.958230556    -1.752671443
 C       -6.308799021     3.093502384    -1.584597240
 C       -5.839169820     4.352931734    -1.947505465
Si       -6.153496603     0.296854556    -1.282231207
 C       -4.778690395    -0.970978877    -1.303488815
 C       -6.858283573     0.389924880     0.447638202
 C       -7.483740846    -0.195357584    -2.497489458
 C        1.029919982    11.513931333    -5.539849404
 C       -0.762660881    12.759767139    -3.397698929
 C       -5.191597758    12.544863858     1.373425820
 C       -2.883501286    13.725920547    -0.211801786
 C       -0.631156922    -0.855021016    -1.538992769
 C       -0.615522951    -0.897302564     1.520461113
 H        1.206271689     2.694671503    -0.592736256
 H        0.287225902     4.944101886    -0.576337310
 H       -3.564561632     3.403994347     0.573163791
 H       -2.681462153     1.140331184     0.596835878
 H       -3.354475077     5.694775948     0.288008516
 H       -0.580247017     6.802705828    -0.534302039
 H       -0.427511007     9.136586896    -0.798608304
 H       -1.375679730    11.377873259    -0.760868541
 H       -5.236492083     9.670071952     0.299378114
 H       -4.235431211     7.461221504     0.302833758
 H       -6.110580079    11.762872896    -1.620699546
 H       -4.453961151    14.198215089    -2.651791865
 H       -5.195221864    15.201444899    -4.625892339
 H       -6.738698154    15.383325588    -6.508305721
 H       -8.825443311    11.864973774    -5.110778379
 H       -7.349819892    11.775094145    -3.162704169
 H       -9.764958461    12.485026697    -8.544173561
 H       -9.750292152    11.771755106    -6.922776026
 H       -8.253527403    11.757388622    -7.908645662
 H       -6.569806628    14.894047869   -12.434868854
 H       -4.893313959    14.506021655   -12.000808844
 H       -5.784318584    15.762459740   -11.083207208
 H       -6.525155286    11.400960104    -9.488515630
 H       -5.025177789    10.531076703    -7.721626302
 H       -2.658737746    14.121998550    -7.971792267
 H       -4.141649499    14.988791155    -9.722140099
 H       -3.192066362    10.711430892    -6.346315408
 H       -1.493717242    13.329277989    -6.535879562
 H       -3.314243751    10.719404930    -3.759844681
 H       -4.174687082     8.537168872    -3.130799897
 H       -0.484492094     6.679420241    -4.340166251
 H        0.433501131     8.846794501    -4.955264177
 H       -2.155845844     5.312998101    -3.502799872
 H       -4.819752142     6.650010724    -2.664308595
 H       -2.741304501     3.472932861    -3.037761355
 H       -3.548123111     1.266628787    -2.442259535
 H       -7.317869605     3.031883233    -1.169264696
 H       -6.479008096     5.222572537    -1.813748358
 H       -9.784167347    14.741731549    -8.541095136
 H       -8.910288575    15.717829950    -7.336505814
 H       -7.611479651    16.003832071    -9.297476235
 H       -6.698814263    14.811655797    -8.376848369
 H       -8.141653268    13.020279860    -9.841220702
 H       -8.353373465    14.401905614   -10.936323694
 H        2.267254034    -1.028830602     0.050952887
 H        2.270652485     0.553663647     0.867555639
 H        2.277330782     0.466427209    -0.913431922
 H       -5.147219630    -1.962789958    -0.987151433
 H       -3.960396602    -0.687709025    -0.616885643
 H       -4.348302709    -1.086258677    -2.314042644
 H       -6.097496305     0.731715889     1.172750652
 H       -7.707407987     1.092889197     0.503773548
 H       -7.221944653    -0.596036483     0.785822874
 H       -7.086478615    -0.248445179    -3.527363204
 H       -7.908368488    -1.184448737    -2.252538028
 H       -8.314510626     0.532375422    -2.503605674
 H        1.080082751    10.874463236    -6.439860913
 H        1.419082108    12.507771703    -5.822911717
 H        1.718691633    11.090679119    -4.787823511
 H       -1.804810968    12.904851600    -3.056026554
 H       -0.182643732    12.342528248    -2.556033473
 H       -0.345813389    13.753933838    -3.632846052
 H       -5.992890275    11.788058970     1.428399155
 H       -4.557964992    12.422309008     2.270065593
 H       -5.670229358    13.538442486     1.435884870
 H       -2.274646930    13.698924916    -1.133322728
 H       -3.348547546    14.726077669    -0.149661340
 H       -2.195231057    13.627903004     0.646587887
 H       -0.289965599    -0.335983416    -2.452739385
 H       -0.274597989    -1.897954162    -1.594476513
 H       -1.735781365    -0.876281840    -1.564769565
 H       -0.305747016    -0.374634321     2.443758705
 H       -1.717166263    -0.969861401     1.535341939
 H       -0.213684978    -1.924406783     1.569753427

