139   

Si        0.000000000     0.000000000     0.000000000
 C        1.869152979     0.000000000     0.000000000
 C       -0.620816375     1.737407982     0.000000000
 C       -1.672004745     2.135843938     0.831233461
 C       -2.127627410     3.454159349     0.817109572
 C       -1.541449894     4.401283180    -0.025658181
 C       -0.491777921     3.999201926    -0.862765915
 C       -0.040602972     2.682553967    -0.856197960
 C       -1.979806292     5.790729966    -0.078688267
 C       -2.974367506     6.316263124     0.656627621
 C       -3.390261274     7.713082959     0.580722438
 C       -4.440630395     8.161264545     1.392099318
 C       -4.862900576     9.488701452     1.344605280
 C       -4.225744862    10.403727542     0.499562384
 C       -3.171273711     9.959212447    -0.306495701
 C       -2.762262782     8.628474884    -0.268815665
Si       -4.748190939    12.174133599     0.400570425
 C       -4.020973312    12.797241806    -1.160789476
 C       -3.149549575    13.807370795    -1.273412796
 C       -2.598357412    14.265765321    -2.549531728
 C       -1.691402371    15.334515948    -2.550385803
 C       -1.141653382    15.805487843    -3.731210742
 C       -1.443377412    15.176994960    -4.958294965
 C       -2.349214366    14.102505742    -4.957861825
 C       -2.930545111    13.674498650    -3.771330337
 N       -0.867559451    15.680370064    -6.144080926
 C        0.550975711    16.085983165    -6.051676274
 C       -1.195218126    14.964673438    -7.387734403
 C        1.485309914    15.073928989    -5.363459841
 C        1.978638913    13.965056102    -6.312446817
 N        2.076480412    12.629107087    -5.685918242
 C        0.817173831    12.000891773    -5.467461994
 C        0.065972699    11.667358706    -6.610859344
 C       -1.168560645    11.054051410    -6.475506389
 C       -1.667198844    10.704233728    -5.211165054
 C       -0.903730727    11.011435439    -4.082442453
 C        0.326619855    11.651008581    -4.202371529
 C        3.006402034    12.604078548    -4.543965321
 C       -2.979806310    10.058089226    -5.137742251
 C       -3.578236501     9.670652104    -4.004122412
Si       -5.222186941     8.863017142    -3.931318207
 C       -5.070776822     7.197428626    -3.156749945
 C       -4.170002447     6.259358685    -3.677577530
 C       -4.050445344     4.999120360    -3.097376519
 C       -4.833803781     4.642229156    -1.991792402
 C       -5.730255427     5.580948804    -1.474514909
 C       -5.844006071     6.847702881    -2.046038892
 C       -4.677147931     3.311104889    -1.413941069
 C       -5.363289030     2.861755182    -0.349337015
 C       -5.216364353     1.534704585     0.237631555
 C       -4.326882381     0.580681364    -0.262682898
 C       -4.221057173    -0.676535328     0.332658060
 C       -4.993034981    -1.001517973     1.451615018
 C       -5.881119485    -0.044020931     1.960444979
 C       -5.989850219     1.206876339     1.359907904
Si       -4.877494015    -2.655270767     2.263299684
 C       -3.640009807    -3.736671210     1.371643384
 C       -4.318196716    -2.410756451     4.030270379
 C       -6.558042576    -3.469892354     2.223046659
 C       -6.353424287     9.951881493    -2.919458022
 C       -5.943829102     8.646407329    -5.642526873
 C       -6.607907752    12.305491221     0.297175505
 C       -4.115632852    13.094166756     1.894300219
 C       -0.644725161    -0.853292638    -1.534136953
 C       -0.609665680    -0.898730980     1.520914907
 H       -2.173898040     1.439636979     1.510783777
 H       -2.953379651     3.737128142     1.468204762
 H       -0.025731410     4.721968565    -1.529746950
 H        0.777489230     2.426435594    -1.534173097
 H       -1.430556294     6.412566688    -0.793589831
 H       -3.535373540     5.701471107     1.364589710
 H       -4.939050891     7.464442735     2.062599007
 H       -5.694629263     9.779519258     1.990076582
 H       -2.628338616    10.633744701    -0.978638045
 H       -1.947479733     8.304275827    -0.915117306
 H       -4.378780335    12.254962545    -2.053186289
 H       -2.777006441    14.372489057    -0.409841320
 H       -1.422485517    15.815715160    -1.609803844
 H       -0.475542662    16.663086930    -3.708631955
 H       -2.598152600    13.581196690    -5.877868017
 H       -3.636013474    12.840405576    -3.803521360
 H       -0.723818826    15.471078221    -8.245712726
 H       -2.288325305    15.012059856    -7.549453659
 H       -0.885865796    13.905599665    -7.387716665
 H        3.993490839    12.962285120    -4.883908277
 H        3.136643381    11.559936791    -4.207376266
 H        2.692514796    13.216193762    -3.684265605
 H        0.466961204    11.884181123    -7.598464734
 H       -1.747775931    10.819751368    -7.368518978
 H       -1.272678145    10.757380719    -3.087129259
 H        0.885834031    11.896014055    -3.303747531
 H       -3.438917629     9.917686079    -6.125936241
 H       -3.100199596     9.814604787    -3.021661449
 H       -3.532029986     6.484022768    -4.537382248
 H       -3.337649274     4.285372669    -3.506359565
 H       -6.345836943     5.332550377    -0.612200608
 H       -6.552731006     7.542540031    -1.586808706
 H       -3.934053687     2.678837717    -1.909490797
 H       -6.100545895     3.500336584     0.145922382
 H       -3.708654693     0.813995174    -1.129025871
 H       -3.523432398    -1.389893411    -0.115126035
 H       -6.510213203    -0.241963392     2.832236133
 H       -6.686641326     1.936740871     1.767087293
 H        0.924528793    16.327437084    -7.070295729
 H        0.572419870    17.050941272    -5.489368494
 H        2.349053381    15.608343978    -4.928477225
 H        0.963282831    14.617460136    -4.495601288
 H        1.314232074    13.886374594    -7.200559056
 H        2.987924362    14.217215681    -6.708768345
 H        2.270897703    -1.027255061     0.046214134
 H        2.267188996     0.552047839     0.870815877
 H        2.279314216     0.475929635    -0.907445014
 H       -3.555792692    -4.726322777     1.854660364
 H       -2.631970981    -3.283222612     1.369039119
 H       -3.934340559    -3.906943716     0.320736205
 H       -3.332442912    -1.913084297     4.074150079
 H       -5.029319467    -1.784171974     4.596931889
 H       -4.228705777    -3.375156698     4.560219623
 H       -6.911675658    -3.605506913     1.184694389
 H       -6.534514601    -4.465690919     2.699415087
 H       -7.315715976    -2.864951889     2.751707751
 H       -6.086301933     9.904583494    -1.847485705
 H       -6.294463528    11.008100745    -3.237355948
 H       -7.406481793     9.634703067    -3.013617838
 H       -5.298897421     8.014542829    -6.278290696
 H       -6.933531831     8.157188246    -5.595321234
 H       -6.077158441     9.615869673    -6.153362623
 H       -7.008886753    11.738512356    -0.562635850
 H       -7.092591973    11.915553772     1.208859576
 H       -6.925254716    13.357025153     0.175867980
 H       -3.015392942    13.024288216     1.974750401
 H       -4.381690915    14.165234361     1.851804199
 H       -4.538081464    12.683051128     2.828493691
 H       -0.283110756    -0.355854352    -2.451450942
 H       -0.318000107    -1.906673058    -1.575193287
 H       -1.749088284    -0.843328719    -1.567910052
 H       -0.219402927    -0.433007009     2.443790505
 H       -1.713259765    -0.880690438     1.583987342
 H       -0.291668610    -1.955446581     1.521900886

