139   

Si        0.000000000     0.000000000     0.000000000
 C        1.868910705     0.000000000     0.000000000
 C       -0.608145265     1.741469152     0.000000000
 C       -0.108353603     2.647583513    -0.943098810
 C       -0.553593708     3.967802775    -0.961353538
 C       -1.514280890     4.409798646    -0.046578443
 C       -2.014218520     3.501412439     0.894436628
 C       -1.564768387     2.183055917     0.920478791
 C       -2.008257763     5.782355588    -0.030285997
 C       -1.602264478     6.746784259    -0.873305516
 C       -2.093406111     8.119910766    -0.860455809
 C       -3.052990772     8.567602926     0.050809910
 C       -3.494142925     9.890725952     0.026765641
 C       -3.007933551    10.784503027    -0.930767416
 C       -2.047216572    10.338379734    -1.848521549
 C       -1.587813250     9.025311511    -1.803042012
Si       -3.582961717    12.537148930    -0.973821204
 C       -2.112400269    13.617852934    -0.787819310
 C       -0.869834101    13.137240192    -0.649670969
 C        0.336766140    13.948010165    -0.498092078
 C        1.565582672    13.281358417    -0.364083211
 C        2.745948198    13.986143334    -0.217005549
 C        2.728090655    15.397012321    -0.168545886
 C        1.496386169    16.064461537    -0.267159438
 C        0.317362425    15.339714707    -0.410107886
 N        3.957079844    16.069250954    -0.017605149
 C        5.069702417    15.602300880    -0.868073950
 C        3.901028216    17.526778614     0.162523284
 C        4.723695150    15.382774508    -2.355317143
 C        4.469258074    16.703067287    -3.106928880
 N        3.175037689    16.800569958    -3.807865043
 C        2.633084946    15.656485593    -4.413150924
 C        3.496736985    14.793992361    -5.123515963
 C        2.999167190    13.655637664    -5.734091638
 C        1.629937342    13.348405080    -5.697030562
 C        0.775134900    14.213326629    -5.008941789
 C        1.260017113    15.351098334    -4.374578143
 C        2.222822985    17.738383894    -3.197020556
 C        1.169956801    12.128562828    -6.363279130
 C       -0.102269713    11.709018185    -6.410337593
Si       -0.641614529    10.173679793    -7.255375781
 C       -1.454548282     8.962643618    -6.127632876
 C       -2.426691637     9.391350373    -5.213567753
 C       -3.042989911     8.479932759    -4.360156078
 C       -2.727756963     7.115564326    -4.418373930
 C       -1.767385830     6.689774748    -5.339255241
 C       -1.135283876     7.602613114    -6.183136819
 C       -3.398758587     6.197662245    -3.504590645
 C       -3.171942171     4.874182099    -3.450034406
 C       -3.842840457     3.955896033    -2.536274983
 C       -4.803553201     4.379466465    -1.614538751
 C       -5.420462304     3.466971677    -0.759161670
 C       -5.083067659     2.110832716    -0.802850569
 C       -4.120061922     1.683262405    -1.726348985
 C       -3.511441293     2.595160997    -2.584247603
Si       -5.888592847     0.889324667     0.320916582
 C       -6.683509812     1.762525691     1.771004074
 C       -7.188682284    -0.037267131    -0.650125232
 C       -4.604165322    -0.306503440     0.967539415
 C       -1.909676550    10.663739239    -8.542900136
 C        0.815502999     9.366744755    -8.108346466
 C       -4.380470423    12.864563016    -2.632465977
 C       -4.791147792    12.901205764     0.401264943
 C       -0.646251462    -0.840527784    -1.540775425
 C       -0.615799475    -0.918328163     1.507689997
 H        0.638522511     2.358861113    -1.687322531
 H       -0.149889988     4.655544035    -1.702746542
 H       -2.768342066     3.823088946     1.610191594
 H       -1.988024773     1.521401235     1.680452195
 H       -2.759571325     5.989171870     0.736763913
 H       -0.856546935     6.535211144    -1.645951426
 H       -3.459665400     7.885744498     0.794939637
 H       -4.233373270    10.186233139     0.775441593
 H       -1.631988442    10.991820023    -2.624021599
 H       -0.835540145     8.696624124    -2.520721130
 H       -2.318569270    14.696211122    -0.800192792
 H       -0.651272964    12.056723094    -0.629042559
 H        1.593897679    12.190069666    -0.392802122
 H        3.686899952    13.451881520    -0.114969768
 H        1.444027183    17.146310418    -0.206173370
 H       -0.630206742    15.875547216    -0.472078177
 H        4.909231449    17.908394561     0.397434098
 H        3.263799125    17.755652134     1.037512343
 H        3.510982417    18.076284093    -0.708506573
 H        2.745045529    18.661557042    -2.897530135
 H        1.698124226    17.323052465    -2.320470996
 H        1.469215888    18.032042711    -3.952064547
 H        4.555353668    15.026577165    -5.189959257
 H        3.685563326    12.993831941    -6.262671376
 H       -0.291767391    13.991217946    -4.950304076
 H        0.566410678    15.978706603    -3.823737772
 H        1.992234363    11.568577016    -6.830913125
 H       -0.909924909    12.283305884    -5.932484941
 H       -2.719699323    10.441648717    -5.127670336
 H       -3.775775640     8.832868639    -3.632814334
 H       -1.503055355     5.636008963    -5.404533417
 H       -0.387086710     7.208378101    -6.875358981
 H       -4.122781361     6.668694204    -2.832358355
 H       -2.443603857     4.403986490    -4.116587582
 H       -5.076789364     5.431739391    -1.555574631
 H       -6.164514195     3.857926626    -0.060497381
 H       -3.810973924     0.637277041    -1.801373493
 H       -2.761464554     2.245679360    -3.291066066
 H        5.920057820    16.311504600    -0.773462216
 H        5.428201808    14.638521412    -0.430885374
 H        5.541639336    14.820030043    -2.840242477
 H        3.838082986    14.715684178    -2.432889722
 H        4.582454528    17.570432768    -2.423075179
 H        5.256629165    16.837113042    -3.890174410
 H        2.271528038    -1.027795805     0.012430704
 H        2.267357410     0.524399022     0.887664640
 H        2.276874819     0.506591130    -0.892076064
 H       -7.110907793     1.038467819     2.486759050
 H       -7.503715216     2.426499601     1.446571039
 H       -5.949828860     2.379223229     2.320420442
 H       -7.960214476     0.649228347    -1.043005361
 H       -6.747169398    -0.563239380    -1.515368694
 H       -7.699576162    -0.790279458    -0.025599766
 H       -3.825102881     0.225054078     1.543828965
 H       -5.057615739    -1.060860238     1.633436551
 H       -4.100369321    -0.846352025     0.146430753
 H       -2.799455230    11.125744969    -8.080416265
 H       -1.489288980    11.390755938    -9.260133619
 H       -2.253611830     9.785616852    -9.117500305
 H        1.563612410     9.009056197    -7.378810802
 H        0.499545138     8.501766429    -8.717321430
 H        1.321757346    10.076285292    -8.787481064
 H       -3.670877729    12.692512659    -3.462272430
 H       -5.249169331    12.201500172    -2.793492091
 H       -4.737213732    13.906137072    -2.709300912
 H       -4.335665753    12.727418613     1.393406510
 H       -5.124495794    13.953892676     0.374087797
 H       -5.692221319    12.267419742     0.328765970
 H       -0.308038602    -0.320734488    -2.454592700
 H       -0.300235631    -1.886607435    -1.603353300
 H       -1.751091900    -0.851567603    -1.556046519
 H       -0.297873472    -0.419313146     2.440473811
 H       -1.718488050    -0.986552157     1.520617647
 H       -0.221323942    -1.949401215     1.534269734

