139   

Si        0.000000000     0.000000000     0.000000000
 C        1.869027056     0.000000000     0.000000000
 C       -0.651447159     1.726656704     0.000000000
 C        0.199350403     2.830622138     0.105883106
 C       -0.315813536     4.127207796     0.103712700
 C       -1.690373358     4.348011010    -0.008437168
 C       -2.542338413     3.239322996    -0.111479299
 C       -2.032308211     1.944628062    -0.102514302
 C       -2.278333126     5.682252863    -0.015694362
 C       -1.587802880     6.831316112     0.082023117
 C       -2.203117878     8.154662589     0.072031917
 C       -3.586114482     8.322294930    -0.042596917
 C       -4.147123803     9.595470598    -0.049518447
 C       -3.341769645    10.732771984     0.091918376
 C       -1.959431930    10.569455342     0.217988107
 C       -1.397543661     9.292739734     0.202464514
Si       -4.190821845    12.364577064     0.068356624
 C       -3.145465526    13.787523902     0.552252827
 C       -3.423376241    14.579998325     1.595923617
 C       -2.610943951    15.724606009     2.010769065
 C       -3.030170166    16.464810990     3.129300225
 C       -2.304912727    17.557149482     3.570273984
 C       -1.157424798    17.971958966     2.864826811
 C       -0.735501087    17.238690279     1.748134849
 C       -1.448009830    16.112163914     1.345154875
 N       -0.463616946    19.102460082     3.378048331
 C       -1.247640469    20.354627534     3.334646140
 C        0.924887719    19.263864553     2.918454064
 C       -1.363252702    21.045522230     1.959939986
 C       -2.362131023    20.352179494     1.011068327
 N       -3.744769466    20.499941992     1.499378805
 C       -4.671233923    19.471057437     1.261156092
 C       -4.297152856    18.217674808     0.738567608
 C       -5.245017064    17.230116312     0.518977463
 C       -6.597400432    17.437921220     0.821118418
 C       -6.966279659    18.673871743     1.361942991
 C       -6.028486489    19.669792174     1.595581961
 C       -4.269817594    21.871518141     1.368390261
 C       -7.554969591    16.359769682     0.568644507
 C       -8.869151870    16.443266002     0.817167005
Si      -10.102629911    15.121334688     0.517401912
 C       -9.281887886    13.626227653    -0.187071858
 C       -8.665014360    13.692264726    -1.443606622
 C       -8.043447112    12.569342184    -1.982839230
 C       -8.046745240    11.346283810    -1.297558357
 C       -8.671607476    11.281403344    -0.049697291
 C       -9.278903630    12.409600463     0.501853337
 C       -7.381753777    10.197878900    -1.903873778
 C       -7.295261251     8.977121419    -1.347633493
 C       -6.627401139     7.834164290    -1.962730442
 C       -6.005889592     7.913361068    -3.212592817
 C       -5.378007137     6.799991031    -3.767852994
 C       -5.344255521     5.582137263    -3.078102886
 C       -5.957487520     5.503082194    -1.822464886
 C       -6.588861822     6.616558549    -1.271566327
Si       -4.503726731     4.124568734    -3.841839428
 C       -2.662006924     4.352482865    -3.643724750
 C       -5.029757231     2.540975421    -2.997858051
 C       -4.953640636     4.026473583    -5.653600972
 C      -10.933157823    14.719784663     2.142797763
 C      -11.376463400    15.740184873    -0.701575227
 C       -4.727616239    12.693581307    -1.693542184
 C       -5.670476140    12.278474314     1.205972225
 C       -0.616397467    -0.869623158    -1.536172968
 C       -0.625043614    -0.875750698     1.527698824
 H        1.283589827     2.720839055     0.193531425
 H        0.367608962     4.969998700     0.190186100
 H       -3.618061596     3.392060306    -0.182528709
 H       -2.745102234     1.119366001    -0.181491627
 H       -3.369336679     5.697849143    -0.117551863
 H       -0.499380504     6.827730137     0.178892045
 H       -4.239848216     7.455983920    -0.150243220
 H       -5.235242575     9.658672652    -0.163802131
 H       -1.286908848    11.422518972     0.336637077
 H       -0.319367036     9.183023889     0.297654299
 H       -2.262649272    13.957355724    -0.080320656
 H       -4.301071149    14.427254913     2.241688855
 H       -3.936576331    16.173768604     3.662257583
 H       -2.621167389    18.107277873     4.454710126
 H        0.149307471    17.533613246     1.193739127
 H       -1.094548774    15.541370686     0.486375209
 H        1.400168071    20.071533339     3.501216057
 H        1.032223700    19.497719379     1.848259807
 H        1.483411420    18.334932607     3.132792684
 H       -3.457878695    22.602382165     1.231918748
 H       -4.800294364    22.140302599     2.300294279
 H       -4.966399032    21.981760280     0.519893223
 H       -3.257258893    18.003707290     0.497681468
 H       -4.921758922    16.270561609     0.106756424
 H       -8.009324743    18.863221121     1.617386924
 H       -6.351406323    20.604061863     2.042764954
 H       -7.087862428    15.455695883     0.150556740
 H       -9.309047117    17.360670054     1.238500002
 H       -8.641583888    14.616044302    -2.029801578
 H       -7.560728769    12.642204069    -2.956039626
 H       -8.693296195    10.344060375     0.503408974
 H       -9.745855477    12.298076251     1.484380254
 H       -6.941355907    10.391293100    -2.887302867
 H       -7.744074032     8.775206319    -0.370639595
 H       -6.008741063     8.850538371    -3.766414892
 H       -4.913148967     6.924037820    -4.750207937
 H       -5.964259034     4.578120384    -1.239889961
 H       -7.062531454     6.533651249    -0.295110925
 H       -2.274258481    20.145780574     3.721067285
 H       -0.775853697    21.054001850     4.061811190
 H       -1.662466024    22.098333719     2.123360687
 H       -0.374968728    21.088333805     1.466855920
 H       -2.252651655    20.762315774    -0.017391970
 H       -2.093586623    19.270799403     0.948722053
 H        2.267226516    -1.030107970    -0.028147204
 H        2.275123532     0.485383027     0.905279733
 H        2.272961459     0.534002815    -0.878614369
 H       -2.098703576     3.510562419    -4.082313274
 H       -2.376895359     4.415240183    -2.574182993
 H       -2.311486940     5.281845733    -4.126676276
 H       -4.693760765     2.505559631    -1.946591960
 H       -6.127433810     2.423692539    -3.007024425
 H       -4.597840114     1.661175278    -3.507990431
 H       -4.604263229     4.912700465    -6.211426836
 H       -4.502052468     3.138010196    -6.129296309
 H       -6.047428494     3.957343245    -5.791869230
 H      -10.200708662    14.380439913     2.897479523
 H      -11.445437369    15.605683797     2.558982358
 H      -11.690690269    13.925211737     2.024583750
 H      -10.911302343    16.026271732    -1.662027976
 H      -12.132045810    14.963595436    -0.917370106
 H      -11.909028050    16.626400356    -0.314127694
 H       -3.859488699    12.854271997    -2.355531220
 H       -5.299135125    11.838210041    -2.095415116
 H       -5.371819184    13.589062871    -1.753400688
 H       -5.362699346    12.136362969     2.256960271
 H       -6.280177697    13.199524974     1.150508113
 H       -6.335330704    11.436838206     0.939677713
 H       -0.272907084    -0.354044356    -2.451413418
 H       -0.250296001    -1.910211624    -1.582706854
 H       -1.719537768    -0.902260756    -1.569942720
 H       -0.277939842    -0.371225747     2.447832715
 H       -1.728743222    -0.895813984     1.560133380
 H       -0.270327478    -1.920623406     1.566437609

