139   

Si        0.000000000     0.000000000     0.000000000
 C        1.869181358     0.000000000     0.000000000
 C       -0.639755839     1.732060299     0.000000000
 C        0.106736372     2.770913862    -0.566126466
 C       -0.380037821     4.077734688    -0.564080110
 C       -1.623000165     4.375200291     0.000764721
 C       -2.371834976     3.333164076     0.563197941
 C       -1.889114570     2.027038861     0.560395695
 C       -2.173109935     5.726076333     0.026272342
 C       -1.562461385     6.811754821    -0.478027498
 C       -2.118117121     8.160619561    -0.449384910
 C       -1.375719836     9.207793178    -1.012271722
 C       -1.865590756    10.510975413    -1.008011724
 C       -3.119904250    10.796376239    -0.453392253
 C       -3.864488992     9.752040518     0.103922063
 C       -3.366873271     8.449436067     0.107392341
Si       -3.765648709    12.523749971    -0.449474483
 C       -4.562679796    12.905077970    -2.052095989
 C       -4.672922626    12.067360962    -3.091350528
 C       -5.322729187    12.423131250    -4.356735200
 C       -5.381051774    11.464382656    -5.379910413
 C       -5.985672248    11.756393644    -6.593129496
 C       -6.562384444    13.019884754    -6.801869508
 C       -6.507931294    13.982673693    -5.788357563
 C       -5.883516581    13.682525522    -4.581623170
 N       -7.166707316    13.239976654    -8.083608438
 C       -8.529059161    12.668117105    -8.153398251
 C       -7.103220628    14.634861997    -8.555359707
 C       -9.585434550    13.415516813    -7.314311426
 C      -10.799982413    12.525063452    -6.989657777
 N      -10.771301893    11.900428028    -5.650038072
 C       -9.714207042    10.979107670    -5.438964964
 C       -9.566285135     9.920536610    -6.358112294
 C       -8.549497370     8.994295078    -6.195958649
 C       -7.688600988     9.052699204    -5.089848800
 C       -7.862688613    10.081620559    -4.161400748
 C       -8.865342132    11.031524261    -4.322771097
 C      -11.002676878    12.876389716    -4.570821648
 C       -6.632372432     8.046506454    -4.972020134
 C       -5.747180942     7.990063303    -3.968635176
Si       -4.422635934     6.733184993    -3.815217252
 C       -4.471556967     5.552337655    -5.231930170
 C       -4.570871891     4.172610506    -5.034043452
 C       -4.606008341     3.300914371    -6.122798191
 C       -4.540214336     3.788444935    -7.430420376
 C       -4.436554668     5.172432960    -7.626867817
 C       -4.399788215     6.044508142    -6.542983172
 C       -4.573567444     2.914876487    -8.598720195
 C       -4.670377833     1.575370561    -8.550303653
 C       -4.703660954     0.702547370    -9.719280080
 C       -4.636375298     1.190442753   -11.027091782
 C       -4.671509997     0.319560319   -12.115891111
 C       -4.767259077    -1.061797314   -11.919854759
 C       -4.834229767    -1.553808832   -10.609811618
 C       -4.805796005    -0.681466306    -9.524861680
Si       -4.814850680    -2.227584208   -13.350473580
 C       -4.114913196    -1.411546168   -14.880002056
 C       -3.798396657    -3.746251589   -12.955328124
 C       -6.593245224    -2.713708289   -13.654876607
 C       -2.776045379     7.611862154    -3.840845341
 C       -4.665577847     5.832328149    -2.199768505
 C       -5.038572981    12.733994419     0.903215447
 C       -2.360538975    13.724038260    -0.174395401
 C       -0.631683806    -0.853346160    -1.537510604
 C       -0.604338828    -0.902981128     1.521260313
 H        1.086138341     2.599886595    -1.021835926
 H        0.220776277     4.868199891    -1.010640426
 H       -3.342986929     3.543048785     1.007762842
 H       -2.518303852     1.255564761     1.012820301
 H       -3.151684962     5.810757612     0.508843427
 H       -0.582613247     6.728863961    -0.956871910
 H       -0.401133965     9.003810956    -1.452103023
 H       -1.238715861    11.287843761    -1.455803928
 H       -4.850310101     9.914445858     0.549658004
 H       -3.962601889     7.656605687     0.556330170
 H       -4.967238937    13.929095726    -2.102680588
 H       -4.281294883    11.040249918    -3.075028236
 H       -4.950577618    10.472557926    -5.222064500
 H       -6.023976350    11.012307292    -7.388138060
 H       -6.946676057    14.964530213    -5.936269815
 H       -5.844582796    14.445149208    -3.804103264
 H       -7.401916570    14.655355180    -9.617779086
 H       -6.057942480    14.986229752    -8.500399036
 H       -7.738824750    15.341369580    -8.002188840
 H      -11.923292965    13.444007688    -4.788819774
 H      -10.178862254    13.592592205    -4.423471750
 H      -11.176054638    12.333582612    -3.624052335
 H      -10.254362715     9.830374445    -7.194669693
 H       -8.432057695     8.196410603    -6.930144350
 H       -7.202305292    10.154696150    -3.294913649
 H       -8.955206509    11.827190003    -3.589639089
 H       -6.638370251     7.320661366    -5.798399360
 H       -5.766467153     8.719913800    -3.143707031
 H       -4.623995267     3.731807878    -4.034242964
 H       -4.684275421     2.230390965    -5.942158642
 H       -4.381799040     5.571385953    -8.637823573
 H       -4.311449319     7.114751015    -6.757177090
 H       -4.512134603     3.434070534    -9.559744714
 H       -4.731477420     1.055621126    -7.589573935
 H       -4.556529277     2.261075685   -11.207097703
 H       -4.616969589     0.761387200   -13.114665313
 H       -4.909944876    -2.623407216   -10.395307503
 H       -4.861140058    -1.082666414    -8.514524667
 H       -8.828718917    12.649289504    -9.223708088
 H       -8.459941094    11.603631885    -7.824935557
 H       -9.123133018    13.776416869    -6.374159712
 H       -9.916540188    14.322253696    -7.849702233
 H      -11.737497948    13.122775113    -7.057697596
 H      -10.908597663    11.717859601    -7.748052173
 H        2.267475178    -1.027578550     0.076636522
 H        2.270086626     0.575496813     0.854008793
 H        2.279305431     0.443873021    -0.924131707
 H       -4.066352319    -2.122264924   -15.724193069
 H       -3.090149545    -1.038446781   -14.701860553
 H       -4.731641196    -0.555583570   -15.205663406
 H       -2.758941748    -3.474112672   -12.696456160
 H       -4.216531988    -4.308434251   -12.102248501
 H       -3.756778411    -4.435249749   -13.817386733
 H       -7.215980132    -1.831406777   -13.889028939
 H       -6.679345162    -3.417510169   -14.501139806
 H       -7.035226474    -3.201329851   -12.767591335
 H       -2.594962108     8.110750602    -4.808797355
 H       -2.721895436     8.383815673    -3.049603599
 H       -1.946339061     6.903009654    -3.669206883
 H       -5.624359134     5.284755615    -2.180828016
 H       -3.853780936     5.103151611    -2.019058955
 H       -4.669250365     6.540548704    -1.351257636
 H       -5.938728551    12.121438982     0.715809144
 H       -4.629380507    12.439173609     1.886057338
 H       -5.368188895    13.785035978     0.983864468
 H       -1.639311786    13.706677280    -1.010991879
 H       -2.729310924    14.760771590    -0.080026129
 H       -1.805749952    13.482526018     0.750133004
 H       -0.289482874    -0.337319702    -2.453035688
 H       -0.279893254    -1.898563299    -1.591777933
 H       -1.736013173    -0.870051036    -1.563715284
 H       -0.308579214    -0.372500557     2.444592493
 H       -1.703839327    -1.001139977     1.530868230
 H       -0.181893992    -1.922263755     1.574560995

