139   

Si        0.000000000     0.000000000     0.000000000
 C        1.869329251     0.000000000     0.000000000
 C       -0.640609792     1.731632494     0.000000000
 C        0.112926567     2.774565197    -0.549060865
 C       -0.375345062     4.080871504    -0.546646840
 C       -1.630045549     4.373777695    -0.005248596
 C       -2.386006165     3.327133324     0.539013789
 C       -1.899394742     2.022323129     0.541422297
 C       -2.181765668     5.724486963     0.019374260
 C       -1.560943912     6.813915607    -0.464124048
 C       -2.113741546     8.164180868    -0.438914750
 C       -1.357801922     9.212706639    -0.979080883
 C       -1.844990858    10.517684787    -0.976946185
 C       -3.097838467    10.807214481    -0.423288008
 C       -3.854291590     9.761344077     0.117306210
 C       -3.368521801     8.454670856     0.104497478
Si       -3.756522258    12.531301684    -0.413205502
 C       -4.861478516    12.763292742    -1.855318267
 C       -5.131675873    11.812931037    -2.760314819
 C       -6.014311095    11.996943987    -3.912982877
 C       -6.215624781    10.920278102    -4.789418409
 C       -7.040431615    11.039869934    -5.895286429
 C       -7.663697108    12.271964439    -6.192663469
 C       -7.461979477    13.353266462    -5.313835828
 C       -6.667276952    13.201699017    -4.184139421
 N       -8.497379727    12.377296757    -7.317761243
 C       -8.162855755    11.556662874    -8.495192029
 C       -9.025300445    13.710377413    -7.641522167
 C       -6.740768340    11.751114904    -9.048684894
 C       -6.578809451    12.995899822    -9.937652703
 N       -7.040089451    12.839028307   -11.328173887
 C       -6.482067062    11.799536337   -12.088061278
 C       -5.146761805    11.400314003   -11.858422289
 C       -4.583605757    10.375899546   -12.601134368
 C       -5.299496827     9.742254098   -13.627112063
 C       -6.610212964    10.159579111   -13.873120438
 C       -7.197301473    11.173633383   -13.127352821
 C       -8.467705746    13.127107028   -11.527562874
 C       -4.655434721     8.664984455   -14.380540796
 C       -5.241977522     7.991147206   -15.378558016
Si       -4.470993142     6.638874324   -16.344280984
 C       -5.491547220     5.116922738   -16.125232247
 C       -6.299469224     4.965626044   -14.991557205
 C       -7.070585340     3.818152149   -14.823776650
 C       -7.046860948     2.792359763   -15.777745721
 C       -6.235277912     2.945030104   -16.905611941
 C       -5.464674936     4.094172719   -17.078837663
 C       -7.872481726     1.609452664   -15.557265803
 C       -7.944081887     0.559361665   -16.392798365
 C       -8.769963088    -0.623265003   -16.171659394
 C       -9.581537536    -0.776342631   -15.044173942
 C      -10.355081380    -1.923987436   -14.873095632
 C      -10.340846038    -2.942206847   -15.832156567
 C       -9.529099188    -2.790763071   -16.963475398
 C       -8.751727113    -1.647032917   -17.128067291
Si      -11.363293253    -4.463509657   -15.610058854
 C      -12.876299879    -4.077822565   -14.581805330
 C      -11.913538135    -5.111014416   -17.275324631
 C      -10.320855946    -5.749384603   -14.743319803
 C       -4.449814890     7.150382360   -18.141195017
 C       -2.733883779     6.276513376   -15.764157029
 C       -4.728697022    12.833973879     1.153758945
 C       -2.357329272    13.765605126    -0.519816303
 C       -0.630733097    -0.857616719    -1.535565536
 C       -0.604041451    -0.901305182     1.522552514
 H        1.100206545     2.608058696    -0.988833297
 H        0.233191826     4.875019458    -0.975695003
 H       -3.366035240     3.533070822     0.965805709
 H       -2.534259968     1.248242403     0.981352113
 H       -3.173919044     5.804669508     0.473682044
 H       -0.568938847     6.733736001    -0.918374599
 H       -0.378596843     9.008336293    -1.407834886
 H       -1.212413999    11.293369428    -1.417757855
 H       -4.840653345     9.926789417     0.561029983
 H       -3.977797919     7.658025365     0.527530769
 H       -5.302350157    13.768347281    -1.930198208
 H       -4.701498712    10.801768327    -2.703881615
 H       -5.723586086     9.966155178    -4.592107085
 H       -7.204368548    10.175370414    -6.532559834
 H       -7.926745449    14.315628862    -5.498464493
 H       -6.541968896    14.050249203    -3.510038357
 H       -9.659574133    13.659862276    -8.541735721
 H       -8.242886651    14.469659089    -7.804922013
 H       -9.676838087    14.048315550    -6.812983891
 H       -8.786782752    13.949712877   -10.866670964
 H       -9.123487624    12.258965742   -11.349141127
 H       -8.620763324    13.476937185   -12.566517651
 H       -4.551797256    11.891880971   -11.093727344
 H       -3.558216121    10.068907096   -12.390574538
 H       -7.190996700     9.685070727   -14.666218962
 H       -8.217482582    11.464160722   -13.354479888
 H       -3.630642083     8.456592259   -14.045436836
 H       -6.271295835     8.225168149   -15.694965919
 H       -6.355877771     5.733598099   -14.212724250
 H       -7.697011072     3.719473921   -13.939010385
 H       -6.198867820     2.163160859   -17.661834336
 H       -4.851885044     4.158404905   -17.982055181
 H       -8.456367028     1.625420919   -14.632115248
 H       -7.360565949     0.543026229   -17.318130989
 H       -9.615112973     0.003578745   -14.285371218
 H      -10.967915242    -1.986359443   -13.969505397
 H       -9.477558627    -3.552424499   -17.746321257
 H       -8.125859947    -1.548891890   -18.013256873
 H       -8.306651679    10.487029345    -8.206345996
 H       -8.918201099    11.747233578    -9.288305027
 H       -6.018476651    11.809269201    -8.208071703
 H       -6.446099115    10.845387576    -9.617761854
 H       -7.101317156    13.867241149    -9.485659749
 H       -5.501528494    13.289606170    -9.974794085
 H        2.267689094    -1.028607920     0.059582806
 H        2.269753018     0.561330709     0.863645322
 H        2.279408053     0.459365996    -0.916409738
 H      -13.529851131    -4.963165636   -14.486349904
 H      -13.476038261    -3.270660159   -15.040053072
 H      -12.606913018    -3.755561934   -13.560771393
 H      -12.462913956    -4.338221444   -17.843044548
 H      -11.057515183    -5.433161351   -17.893495971
 H      -12.585443444    -5.980503241   -17.163413784
 H       -9.980148313    -5.391355644   -13.755019495
 H      -10.885226298    -6.684802393   -14.583660800
 H       -9.419009134    -5.998730527   -15.330853382
 H       -5.474135584     7.284969202   -18.533340825
 H       -3.915611026     8.108809725   -18.274913311
 H       -3.946562492     6.398435437   -18.773307788
 H       -2.719060824     5.976651135   -14.700349884
 H       -2.282237143     5.450978550   -16.343164477
 H       -2.078972747     7.159022453   -15.874735334
 H       -5.626623614    12.192608255     1.206444241
 H       -4.115745045    12.625206635     2.049119548
 H       -5.069242093    13.882448132     1.219617248
 H       -1.822921216    13.692270727    -1.483914342
 H       -2.728549295    14.801811842    -0.428456769
 H       -1.619778296    13.604059808     0.286722566
 H       -0.286082201    -0.346069212    -2.452371602
 H       -0.281246226    -1.903817242    -1.585137135
 H       -1.735159107    -0.872090808    -1.563395957
 H       -0.311482645    -0.367712987     2.445129267
 H       -1.703305622    -1.002391173     1.530459764
 H       -0.178631367    -1.919100300     1.579101272

