139   

Si        0.000000000     0.000000000     0.000000000
 C        1.869541377     0.000000000     0.000000000
 C       -0.640054237     1.732040461     0.000000000
 C        0.167576228     2.800329917     0.402879225
 C       -0.326280112     4.104665628     0.398907027
 C       -1.638504358     4.370620997    -0.001140096
 C       -2.447835615     3.298562177    -0.400233807
 C       -1.957002921     1.995468770    -0.398954095
 C       -2.197502766     5.718627515    -0.021262913
 C       -1.527971910     6.828250925     0.334437404
 C       -2.083973460     8.177318830     0.315431346
 C       -3.396175386     8.446393562    -0.084228720
 C       -3.886778515     9.751668131    -0.087014598
 C       -3.069783654    10.817856061     0.302889224
 C       -1.754264762    10.552366732     0.702979722
 C       -1.269973316     9.246737546     0.711500347
Si       -3.709354610    12.548880567     0.302755124
 C       -2.279474940    13.684691917     0.155192539
 C       -1.933281704    14.622970382     1.046246603
 C       -0.781427633    15.513618327     0.893399652
 C       -0.515460789    16.460337328     1.893570148
 C        0.561665945    17.325311207     1.795501646
 C        1.449281443    17.240111841     0.699945224
 C        1.183981898    16.289501259    -0.303994650
 C        0.073694497    15.460031893    -0.210385372
 N        2.535753946    18.124611869     0.616312207
 C        3.173443735    18.547986002     1.875387442
 C        3.469227856    17.943399736    -0.504190463
 C        3.649123354    17.405097222     2.788464388
 C        4.978454686    16.764944076     2.353986100
 N        6.190334287    17.518373643     2.720062338
 C        6.379163827    17.838124959     4.072997861
 C        5.902215170    16.963814742     5.074646937
 C        6.082022814    17.267518842     6.413981667
 C        6.780211621    18.416737273     6.812268738
 C        7.278229763    19.264442252     5.819187070
 C        7.092252417    18.985512744     4.471455263
 C        6.603221470    18.519399165     1.726114476
 C        6.941101488    18.689932992     8.241511120
 C        7.587507678    19.754693429     8.734267973
Si        7.812660388    20.135616874    10.511903372
 C        9.622973105    20.192130583    10.864595007
 C       10.523364529    19.496966306    10.048053367
 C       11.890186083    19.537802261    10.311828519
 C       12.389453651    20.267172940    11.398919634
 C       11.486933364    20.956560930    12.214129411
 C       10.117975118    20.919763776    11.951729929
 C       13.829771915    20.279075543    11.633711376
 C       14.436607197    20.937918837    12.635560051
 C       15.877044661    20.949156930    12.869452187
 C       16.778593260    20.259698891    12.053998363
 C       18.148123285    20.297826177    12.314274348
 C       18.648175696    21.035316354    13.392625915
 C       17.746580127    21.728170576    14.210672564
 C       16.378803708    21.682071031    13.953185962
Si       20.460358907    21.089627055    13.742272900
 C       21.429043202    20.805207436    12.168720403
 C       20.922191346    22.759759298    14.444248277
 C       20.859541052    19.748258226    14.980345547
 C        7.034301978    21.800166660    10.850601431
 C        7.034730796    18.834952254    11.602270321
 C       -4.824233808    12.827832920    -1.170282631
 C       -4.660427291    12.831408963     1.884216515
 C       -0.606375496    -0.890835758    -1.527578220
 C       -0.630965427    -0.861819898     1.532936366
 H        1.202039527     2.655964831     0.726659802
 H        0.324552338     4.918487980     0.714066174
 H       -3.473147561     3.483439075    -0.715492233
 H       -2.635147906     1.200507089    -0.721285635
 H       -3.237020516     5.777803571    -0.356612544
 H       -0.488318283     6.767235885     0.670070675
 H       -4.049226549     7.633471986    -0.396110614
 H       -4.921359806     9.900295537    -0.407858075
 H       -1.071881831    11.349116087     1.017772639
 H       -0.245843485     9.058436146     1.028572592
 H       -1.697292512    13.535503990    -0.768748623
 H       -2.495196675    14.796920349     1.973420946
 H       -1.174403610    16.528000972     2.760153848
 H        0.718695422    18.071472116     2.569469440
 H        1.836087151    16.192072619    -1.165440827
 H       -0.117074716    14.742637896    -1.010672233
 H        4.248371176    18.723286016    -0.476396940
 H        2.920402278    18.078047488    -1.455814323
 H        3.959410971    16.956087954    -0.518387070
 H        6.406716794    18.146806977     0.707219966
 H        7.696785323    18.672162092     1.802509561
 H        6.103097612    19.494547388     1.846285355
 H        5.387050266    16.047238905     4.801491642
 H        5.685327895    16.588938544     7.170313762
 H        7.827034470    20.165449412     6.099830139
 H        7.495834611    19.673391528     3.736088107
 H        6.477414295    17.928044649     8.882002735
 H        8.042117582    20.502839769     8.064569803
 H       10.189682080    18.910640019     9.185145709
 H       12.575655815    18.993472479     9.664642583
 H       11.848838562    21.531025354    13.064826527
 H        9.461515816    21.480159371    12.622857215
 H       14.414145856    19.694936143    10.916504488
 H       13.852192930    21.521737899    13.352807847
 H       16.416198367    19.683163254    11.204707419
 H       18.802698147    19.735065649    11.642941266
 H       18.078801070    22.321422464    15.067123916
 H       15.693972769    22.225322728    14.601835148
 H        4.018191128    19.230528802     1.636925525
 H        2.433411716    19.178962571     2.425724846
 H        3.740157598    17.786701475     3.826556805
 H        2.868446985    16.618136841     2.838876035
 H        5.068517103    15.748909669     2.810288132
 H        4.984047261    16.591057333     1.255618558
 H        2.267727077    -1.027921126    -0.072490979
 H        2.279021497     0.447016060     0.922862650
 H        2.270395808     0.571345160    -0.856647861
 H       22.514208211    20.915906583    12.342817089
 H       21.143077012    21.531008518    11.386035396
 H       21.262246354    19.792285291    11.762492399
 H       20.626100017    23.576058533    13.760653265
 H       20.433238222    22.945312803    15.416452729
 H       22.012463357    22.838877747    14.602545964
 H       20.599102455    18.748770608    14.587784721
 H       21.934619589    19.739032102    15.231737307
 H       20.296905867    19.888274195    15.920824667
 H        7.532753287    22.602060942    10.276527662
 H        5.966329747    21.804530792    10.566251445
 H        7.094398939    22.068102197    11.919734249
 H        7.474275891    17.838049239    11.415577616
 H        7.187387320    19.064846298    12.672129083
 H        5.946500979    18.761686019    11.428775943
 H       -4.310465000    12.580451857    -2.116828240
 H       -5.736339608    12.208756881    -1.113981027
 H       -5.142746798    13.884437510    -1.232828409
 H       -4.020329152    12.677246151     2.772003237
 H       -5.064179095    13.858317124     1.933758673
 H       -5.512608146    12.133448042     1.969679389
 H       -0.300593337    -0.359774620    -2.447343763
 H       -0.195699488    -1.914611566    -1.582839661
 H       -1.707066488    -0.974404466    -1.543172704
 H       -0.284141861    -0.353496769     2.450844699
 H       -1.735289175    -0.874522178     1.561866814
 H       -0.283031645    -1.908674409     1.579176604

