139   

Si        0.000000000     0.000000000     0.000000000
 C        1.869462497     0.000000000     0.000000000
 C       -0.632929724     1.734412924     0.000000000
 C        0.065984359     2.745699854    -0.668465554
 C       -0.410238568     4.056201037    -0.669724315
 C       -1.597530436     4.385485923    -0.009676217
 C       -2.298567468     3.370858772     0.654835234
 C       -1.824485743     2.061285245     0.659029022
 C       -2.134491957     5.742060726     0.016233608
 C       -1.562673214     6.803698992    -0.577096188
 C       -2.101881454     8.159494060    -0.549620688
 C       -3.290326218     8.483978667     0.112224072
 C       -3.769787542     9.792207052     0.113481396
 C       -3.072848083    10.807010737    -0.554712326
 C       -1.884869681    10.484712889    -1.218849942
 C       -1.405206557     9.176299005    -1.214358197
Si       -3.739133114    12.526407595    -0.530439217
 C       -3.781633917    13.156169312     1.187707183
 C       -3.383830361    12.458915942     2.260130382
 C       -3.417764333    12.962036492     3.632939397
 C       -2.970816656    12.126613046     4.666109988
 C       -2.980004097    12.549781087     5.984903124
 C       -3.400882320    13.856942869     6.313486323
 C       -3.854078328    14.693477157     5.276258017
 C       -3.883426100    14.237080578     3.965268127
 N       -3.403728015    14.269836145     7.658641760
 C       -2.341685404    13.724690292     8.527432736
 C       -3.708496914    15.686839488     7.914479622
 C       -0.908620897    13.847532836     7.977876764
 C       -0.272450025    15.225360546     8.244500255
 N        0.514307712    15.764462392     7.112486843
 C       -0.307877129    16.190786709     6.024108892
 C       -1.044222258    17.372723272     6.223685271
 C       -1.865762421    17.854011577     5.217320834
 C       -1.955457960    17.192738934     3.982593002
 C       -1.204039100    16.032099177     3.784438778
 C       -0.379006951    15.534774457     4.789384096
 C        1.643432694    14.895226041     6.738082078
 C       -2.842547608    17.754038885     2.961502778
 C       -3.030782818    17.235832012     1.740543495
Si       -4.154361223    17.977472930     0.495625932
 C       -4.929788752    19.490008692     1.213381603
 C       -6.272147161    19.503995543     1.608303548
 C       -6.837763885    20.657105716     2.148069385
 C       -6.074195817    21.819173069     2.317216522
 C       -4.731103256    21.800062116     1.928722966
 C       -4.163726109    20.649228470     1.384628356
 C       -6.711861493    23.001629728     2.886923404
 C       -6.095215027    24.176980115     3.097343494
 C       -6.733144191    25.359369932     3.667103414
 C       -8.075538853    25.378768160     4.055492682
 C       -8.644535370    26.531506105     4.595899990
 C       -7.879506691    27.690009819     4.768691981
 C       -6.533699694    27.672600188     4.381207154
 C       -5.970019293    26.522476578     3.834454633
Si       -8.630742723    29.217659214     5.484078285
 C      -10.024891971    28.764136481     6.644116731
 C       -7.340292628    30.179165970     6.435650375
 C       -9.290512873    30.259675535     4.080476539
 C       -3.172234546    18.425041309    -1.028488514
 C       -5.466007659    16.725933599     0.042733080
 C       -2.666372544    13.675645037    -1.542923172
 C       -5.475226406    12.523153735    -1.222360493
 C       -0.631981333    -0.854412943    -1.536976037
 C       -0.604511408    -0.906230579     1.519476216
 H        0.999957745     2.549900910    -1.202571304
 H        0.153712897     4.825026637    -1.194983657
 H       -3.225902304     3.605203760     1.174521853
 H       -2.414859605     1.312978644     1.194977492
 H       -3.071698704     5.851822204     0.570181953
 H       -0.626221889     6.694670607    -1.131894405
 H       -3.852036281     7.711940598     0.635175055
 H       -4.703641514     9.986047370     0.651307247
 H       -1.298523427    11.235647086    -1.755164509
 H       -0.478218528     8.945474895    -1.735750886
 H       -4.172852018    14.180857398     1.284410464
 H       -2.987884869    11.435006511     2.187837999
 H       -2.617347664    11.121171451     4.432979909
 H       -2.664978950    11.864392902     6.765873617
 H       -4.181213048    15.709130333     5.480827260
 H       -4.251561247    14.905684635     3.183742119
 H       -3.682127973    15.891038527     8.996804616
 H       -4.739395252    15.898652600     7.574035621
 H       -3.019714320    16.384890918     7.406911578
 H        2.312696390    14.796254608     7.610093860
 H        2.223095253    15.382089947     5.933888086
 H        1.357877344    13.886022305     6.404097520
 H       -0.950283934    17.908490699     7.166123967
 H       -2.438482761    18.766885348     5.384620815
 H       -1.264816611    15.495625510     2.835791702
 H        0.185054153    14.623313060     4.611730676
 H       -3.356420804    18.666890404     3.301207822
 H       -2.511164261    16.322036669     1.414257125
 H       -6.916054685    18.625833910     1.506796413
 H       -7.885303426    20.650667292     2.443633616
 H       -4.115328442    22.689645204     2.049746952
 H       -3.107731231    20.694808629     1.100528216
 H       -7.767328759    22.872806013     3.144404225
 H       -5.039974010    24.306658687     2.838807739
 H       -8.691509494    24.489182872     3.936393848
 H       -9.700056362    26.485647742     4.878399889
 H       -5.886950825    28.547392833     4.492453305
 H       -4.922953476    26.529759718     3.536849354
 H       -2.414589385    14.203813011     9.528128148
 H       -2.583373193    12.647029511     8.696299064
 H       -0.279054086    13.051575081     8.414539135
 H       -0.913673392    13.644870500     6.885307913
 H       -1.052371195    15.974232608     8.505980792
 H        0.408735810    15.172877752     9.122904614
 H        2.268336439    -1.027563647     0.071009433
 H        2.269434669     0.571459964     0.857242448
 H        2.279438300     0.450307698    -0.920859644
 H      -10.439268517    29.660243711     7.139584351
 H       -9.677855773    28.077195831     7.437165287
 H      -10.855617294    28.268012725     6.112555580
 H       -6.875944399    29.555462280     7.220930565
 H       -6.532209253    30.543363742     5.777506361
 H       -7.784497370    31.060678721     6.931366927
 H      -10.056194247    29.713820739     3.500280072
 H       -9.753778688    31.190195570     4.452879019
 H       -8.486685744    30.543957024     3.377779976
 H       -2.364107428    19.141416921    -0.795674789
 H       -2.703095139    17.535143705    -1.484058638
 H       -3.817032636    18.892068995    -1.794594895
 H       -5.934344723    16.280202308     0.938987722
 H       -6.267297058    17.189681323    -0.559946187
 H       -5.043769828    15.900808548    -0.557099412
 H       -1.644112814    13.740712253    -1.128096275
 H       -2.585957075    13.333152002    -2.589315235
 H       -3.079840282    14.699856648    -1.561211757
 H       -6.144765398    11.876803796    -0.626785915
 H       -5.912553600    13.536793254    -1.228512931
 H       -5.489148292    12.145798331    -2.260518709
 H       -0.287127915    -0.341631251    -2.452876874
 H       -0.283546485    -1.900861738    -1.588192150
 H       -1.736498283    -0.867935078    -1.563968773
 H       -0.314343763    -0.374772397     2.443890436
 H       -1.703615759    -1.010176487     1.524519529
 H       -0.177263227    -1.923424493     1.573577915

