139   

Si        0.000000000     0.000000000     0.000000000
 C        1.869580741     0.000000000     0.000000000
 C       -0.633073180     1.734465921     0.000000000
 C        0.105323699     2.762716711    -0.595771694
 C       -0.373223194     4.072480345    -0.595510447
 C       -1.603407121     4.383197025    -0.009443476
 C       -2.344309535     3.351433120     0.581662657
 C       -1.866917506     2.043144563     0.586272658
 C       -2.144374805     5.738273201     0.014896063
 C       -1.536220401     6.815443767    -0.510575999
 C       -2.081116161     8.169068677    -0.483897089
 C       -1.343328528     9.206319223    -1.069752394
 C       -1.824550024    10.513788898    -1.067648169
 C       -3.060809231    10.811032298    -0.483583651
 C       -3.800791550     9.777149315     0.101305592
 C       -3.313733791     8.471235544     0.102020859
Si       -3.725665254    12.532679858    -0.464657820
 C       -5.550357499    12.380112470    -0.387550844
 C       -6.339834722    12.859193715     0.581986385
 C       -7.797143468    12.707016246     0.591481360
 C       -8.528932762    13.249581646     1.659328586
 C       -9.908167675    13.130091184     1.710451610
 C      -10.594142057    12.434645064     0.695966729
 C       -9.869420963    11.897182896    -0.376165533
 C       -8.488273468    12.052898212    -0.430852074
 N      -12.011562071    12.349054399     0.809341597
 C      -12.448041573    11.523533655     1.960901777
 C      -12.722743349    11.995404682    -0.432669414
 C      -11.846785817    10.105865149     1.994713331
 C      -10.673159407    10.003743458     2.991176284
 N       -9.691788294     8.955731007     2.655056882
 C      -10.198733051     7.657335309     2.462628408
 C      -11.231487472     7.186517005     3.302523786
 C      -11.746504165     5.912462797     3.132536273
 C      -11.226923940     5.043205123     2.161550366
 C      -10.183891951     5.500532218     1.352541965
 C       -9.666989520     6.781898014     1.497675002
 C       -8.657337351     9.413560243     1.713952096
 C      -11.809782794     3.707765180     2.025612234
 C      -11.400738268     2.791215686     1.138060376
Si      -12.120674773     1.117154601     0.957134277
 C      -13.487125902     0.885098922     2.175503054
 C      -13.201689532     0.933717226     3.547306023
 C      -14.215315635     0.761582626     4.485479153
 C      -15.538714284     0.541312162     4.079579585
 C      -15.820119782     0.495926534     2.711900236
 C      -14.806035955     0.666135026     1.768938334
 C      -16.566420235     0.366594799     5.100729005
 C      -17.867699556     0.147673865     4.846690595
 C      -18.895931956    -0.027131505     5.867361434
 C      -18.615623885     0.018067774     7.235983220
 C      -19.629848855    -0.154258541     8.177193823
 C      -20.951364809    -0.367368237     7.769844207
 C      -21.234724086    -0.411924998     6.399278792
 C      -20.218552086    -0.246945598     5.461140470
Si      -22.291898907    -0.595172333     9.018848495
 C      -21.926793373     0.431540912    10.538204012
 C      -23.934706568    -0.058578299     8.305829359
 C      -22.364514937    -2.404578973     9.479287510
 C      -12.748714771     0.931779344    -0.793108576
 C      -10.794153453    -0.158038212     1.283194017
 C       -3.034887951    13.435459910     1.014424247
 C       -3.276653081    13.434470910    -2.036106356
 C       -0.631992352    -0.856402361    -1.535750008
 C       -0.605333357    -0.900933053     1.522098801
 H        1.073121921     2.581671656    -1.071631175
 H        0.223263200     4.855319451    -1.060592175
 H       -3.304935265     3.571653350     1.044446779
 H       -2.488395658     1.281083233     1.064689232
 H       -3.116937580     5.832462600     0.507866203
 H       -0.564018711     6.722425452    -1.003064360
 H       -0.381716745     8.991502600    -1.532026723
 H       -1.205326876    11.282028120    -1.538217624
 H       -4.773940213     9.952996414     0.572795156
 H       -3.906449537     7.683749829     0.565217703
 H       -5.973810334    11.836190243    -1.249072860
 H       -5.952412403    13.407375681     1.450124204
 H       -8.008389131    13.781712228     2.455866756
 H      -10.471241270    13.583081201     2.524184511
 H      -10.374728840    11.357324300    -1.172143080
 H       -7.943866130    11.642688317    -1.283115026
 H      -13.798607810    12.199514535    -0.287606768
 H      -12.607579255    10.945190060    -0.742339015
 H      -12.380572408    12.649547607    -1.253453192
 H       -8.302532543    10.418655682     2.009681863
 H       -9.002647095     9.475937867     0.669097988
 H       -7.784935137     8.738354734     1.771024567
 H      -11.628954493     7.825062394     4.086223277
 H      -12.560785214     5.575995289     3.775809372
 H       -9.761667647     4.845132408     0.589657135
 H       -8.860121321     7.098278125     0.844002741
 H      -12.633374222     3.523070781     2.731220851
 H      -10.576659143     3.000904952     0.439114818
 H      -12.187925889     1.104068323     3.923658885
 H      -13.975039918     0.799798637     5.546409925
 H      -16.839139611     0.326629198     2.369053537
 H      -15.087914883     0.621315983     0.713424151
 H      -16.202480977     0.425849531     6.130748360
 H      -18.231744139     0.087950643     3.816645001
 H      -17.596646891     0.187715358     7.579469772
 H      -19.347805837    -0.111095711     9.232938333
 H      -22.247968836    -0.574493104     6.021633371
 H      -20.458732209    -0.287313624     4.400228570
 H      -12.193770265    12.084136136     2.888320985
 H      -13.559208319    11.468316518     1.940065788
 H      -12.623866875     9.363835874     2.256311263
 H      -11.505746297     9.811045867     0.983252748
 H      -10.133116502    10.977162904     3.054223026
 H      -11.054661638     9.803935742     4.017948821
 H        2.268017272    -1.027261836     0.078735681
 H        2.269774542     0.577361710     0.853140295
 H        2.279621869     0.442582892    -0.924526180
 H      -22.751819263     0.368983899    11.269890265
 H      -21.794120664     1.497253261    10.277551885
 H      -21.007004475     0.096122250    11.048318170
 H      -23.893582239     0.986049912     7.947793080
 H      -24.238573385    -0.692304038     7.454472376
 H      -24.736756609    -0.117514514     9.063106615
 H      -21.407097811    -2.749412648     9.909599319
 H      -23.155767260    -2.599129955    10.224364187
 H      -22.573610668    -3.035722045     8.596762797
 H      -13.516068005     1.691453101    -1.028468010
 H      -11.931697757     1.052443895    -1.526759149
 H      -13.197302007    -0.063793982    -0.957635306
 H      -10.367733471    -0.047860662     2.296470932
 H      -11.198800051    -1.183004084     1.203230722
 H       -9.962753990    -0.069174821     0.562023608
 H       -3.290086855    12.918947266     1.957875727
 H       -1.932779259    13.501241379     0.965579156
 H       -3.427190645    14.466166058     1.078105889
 H       -3.605369279    12.875847898    -2.931153864
 H       -3.753736826    14.430940113    -2.074300211
 H       -2.186047821    13.585908645    -2.119957803
 H       -0.286799536    -0.345415094    -2.452507466
 H       -0.284065075    -1.903129219    -1.585073142
 H       -1.736449807    -0.869390679    -1.563372993
 H       -0.312042962    -0.368212509     2.444972037
 H       -1.704758321    -1.000886418     1.529567006
 H       -0.181235955    -1.919325239     1.578381044

