139   

Si        0.000000000     0.000000000     0.000000000
 C        1.869470362     0.000000000     0.000000000
 C       -0.646049105     1.729268473     0.000000000
 C        0.167607514     2.806482272    -0.364470848
 C       -0.333449051     4.108126141    -0.360045221
 C       -1.658316281     4.362621918     0.004002371
 C       -2.473492690     3.281377839     0.365172813
 C       -1.976062169     1.980957024     0.362011507
 C       -2.225281362     5.707093384     0.023203430
 C       -1.552616666     6.824878522    -0.299485761
 C       -2.118784248     8.169818086    -0.280572521
 C       -3.444497826     8.423416261     0.083824832
 C       -3.945098677     9.724365517     0.088192349
 C       -3.124350315    10.801418211    -0.265089357
 C       -1.796501771    10.551927388    -0.629917038
 C       -1.301981583     9.249683528    -0.640283159
Si       -3.799561470    12.516041473    -0.254874728
 C       -2.423366838    13.720998317    -0.131100022
 C       -2.138597407    14.671809800    -1.030440068
 C       -1.029362348    15.619406549    -0.899533557
 C       -0.831470495    16.573116389    -1.910810272
 C        0.200772465    17.491686023    -1.837442112
 C        1.067599667    17.506644319    -0.720819803
 C        0.883710534    16.538307784     0.282321124
 C       -0.130406632    15.592443577     0.168707099
 N        2.104893040    18.455431771    -0.682970838
 C        1.768404120    19.831780618    -1.108937042
 C        3.028243961    18.406613062     0.459984287
 C        0.412991870    20.392776423    -0.640054460
 C        0.390370367    20.973766635     0.788202642
 N       -0.494193812    20.316808041     1.782054259
 C       -1.736089409    19.858254725     1.227395587
 C       -2.794197295    20.773897364     1.144840087
 C       -4.015239263    20.371855755     0.614068367
 C       -4.188895508    19.079319637     0.101149878
 C       -3.130463757    18.170778761     0.201970513
 C       -1.933706885    18.540730910     0.797066278
 C        0.192933626    19.286081510     2.583277949
 C       -5.485848101    18.676672222    -0.453983394
 C       -5.708356649    17.455925382    -0.957021596
Si       -7.258724443    16.806898738    -1.680007114
 C       -7.693911098    15.363101930    -0.614623154
 C       -7.769723653    15.515752030     0.775568202
 C       -8.097357665    14.431289944     1.585140701
 C       -8.337657085    13.167416851     1.029104855
 C       -8.253446541    13.017983233    -0.357641006
 C       -7.936676104    14.104416648    -1.172348333
 C       -8.678018958    12.059233805     1.915306250
 C       -8.940251745    10.807783724     1.502161965
 C       -9.281125453     9.695198911     2.382157555
 C       -9.368573045     9.831751774     3.770879185
 C       -9.697539552     8.741333825     4.574117309
 C       -9.942891651     7.485539146     4.005273471
 C       -9.853551022     7.346204721     2.615920163
 C       -9.526298147     8.438386340     1.815092196
Si      -10.376568718     6.059792054     5.095200850
 C       -9.032623829     5.851007908     6.377090082
 C      -12.008140041     6.424310961     5.930212045
 C      -10.527293488     4.484433369     4.100895717
 C       -8.649157394    18.047743335    -1.649067569
 C       -6.909242398    16.280439470    -3.437180935
 C       -4.775916726    12.753799455    -1.828669486
 C       -4.903459796    12.774254515     1.226250473
 C       -0.629146212    -0.864964013    -1.532167433
 C       -0.605649236    -0.889723229     1.528837628
 H        1.212083807     2.671150166    -0.658434855
 H        0.321774912     4.929238640    -0.645743929
 H       -3.508667595     3.457415599     0.652044010
 H       -2.659458939     1.178612597     0.653214314
 H       -3.274459597     5.756873014     0.329249233
 H       -0.503319527     6.775067994    -0.605105214
 H       -4.099202303     7.601869704     0.369251487
 H       -4.990206937     9.861090043     0.383470329
 H       -1.112679547    11.357905114    -0.914843577
 H       -0.267590392     9.073178696    -0.928923487
 H       -1.821328891    13.606478131     0.785082049
 H       -2.722105281    14.813393585    -1.949649147
 H       -1.500619225    16.592695596    -2.772501179
 H        0.351687926    18.200030088    -2.647925078
 H        1.540088091    16.500112668     1.145491428
 H       -0.233250570    14.834977081     0.948120745
 H        3.899052048    19.052170846     0.248721681
 H        3.420872829    17.380106355     0.575908863
 H        2.579867035    18.729214342     1.412657790
 H        1.002815498    19.768714809     3.155062077
 H        0.612822880    18.454079831     1.997393956
 H       -0.519385747    18.867130188     3.316441551
 H       -2.653494306    21.788892456     1.511000858
 H       -4.840597309    21.081339322     0.581577268
 H       -3.237577272    17.146772728    -0.166879835
 H       -1.139098821    17.802665491     0.899339329
 H       -6.247114667    19.463022580    -0.421275913
 H       -4.902900129    16.696478421    -0.965194206
 H       -7.576440068    16.475627446     1.265285238
 H       -8.160883786    14.568490695     2.663188723
 H       -8.433879163    12.047143198    -0.815607999
 H       -7.889933752    13.926702649    -2.250289239
 H       -8.710329171    12.315023834     2.978211911
 H       -8.908709192    10.554237034     0.437972767
 H       -9.180252096    10.797151311     4.237609655
 H       -9.752193659     8.910082842     5.653513736
 H      -10.033775571     6.390189726     2.116935113
 H       -9.461838950     8.308971640     0.736090782
 H        2.588499415    20.516412065    -0.801532354
 H        1.785243309    19.822288177    -2.227336005
 H        0.102704118    21.185474678    -1.349961195
 H       -0.371904878    19.616577695    -0.753669176
 H        1.418285583    21.016500182     1.204988530
 H        0.032980093    22.031379662     0.739739334
 H        2.267706579    -1.027984639     0.070344262
 H        2.270926344     0.569870025     0.857355413
 H        2.278213964     0.448727327    -0.922433616
 H       -9.239262966     4.992445762     7.040127105
 H       -8.934425130     6.747956503     7.013780769
 H       -8.050611077     5.675360774     5.901028268
 H      -11.956414330     7.347120366     6.534943486
 H      -12.815482810     6.561839171     5.188097347
 H      -12.309442869     5.601130870     6.601691861
 H       -9.584919422     4.245170447     3.576591202
 H      -10.769552942     3.624890386     4.751513562
 H      -11.326098060     4.557673007     3.341705848
 H       -8.868743930    18.385124888    -0.619727128
 H       -8.405776080    18.942399559    -2.249749646
 H       -9.581196974    17.616952485    -2.058042440
 H       -6.125012641    15.503630035    -3.485386059
 H       -7.813511377    15.876977794    -3.925919371
 H       -6.561776317    17.136431545    -4.044638257
 H       -4.145859709    12.608761541    -2.723507053
 H       -5.610675442    12.032593221    -1.888633253
 H       -5.211458371    13.767442615    -1.876654612
 H       -4.365038934    12.601848261     2.174276867
 H       -5.302542858    13.807261605     1.249448554
 H       -5.775921099    12.094840787     1.208918604
 H       -0.285973531    -0.354852398    -2.450430115
 H       -0.275871431    -1.909956053    -1.578704973
 H       -1.733312294    -0.883243675    -1.559813802
 H       -0.293132940    -0.360759502     2.447631835
 H       -1.706718160    -0.966137666     1.548946289
 H       -0.200982408    -1.915859147     1.581780721

