139   

Si        0.000000000     0.000000000     0.000000000
 C        1.869022918     0.000000000     0.000000000
 C       -0.662139604     1.722884571     0.000000000
 C        0.181576512     2.836569036     0.037132130
 C       -0.346626882     4.127914640     0.036200329
 C       -1.727747890     4.334543944    -0.002431136
 C       -2.572557116     3.216566208    -0.039103974
 C       -2.048577188     1.927052585    -0.037141797
 C       -2.326556118     5.665176762    -0.005009852
 C       -1.635152271     6.816936320     0.028661701
 C       -2.238363505     8.145811688     0.025932239
 C       -1.400804132     9.267563229     0.063598958
 C       -1.932696961    10.555698289     0.062520998
 C       -3.317433115    10.751346227     0.028539208
 C       -4.157134057     9.630910649    -0.009249466
 C       -3.622104556     8.344255578    -0.012913413
Si       -4.062496448    12.439479234     0.025881511
 C       -4.956882419    12.722606189    -1.546641559
 C       -5.052073020    11.831831611    -2.542999424
 C       -5.769452755    12.068024059    -3.796116946
 C       -5.795138735    11.051999718    -4.763212977
 C       -6.459289461    11.223316944    -5.965974104
 C       -7.092233695    12.451210949    -6.264067810
 C       -7.067723076    13.471699564    -5.293555356
 C       -6.433487309    13.265297826    -4.075427762
 N       -7.758861321    12.604169273    -7.486449484
 C       -7.172637136    11.965052385    -8.675622856
 C       -8.423556524    13.887579195    -7.743700069
 C       -5.674000600    12.233774837    -8.908275761
 C       -5.348653515    13.636581933    -9.450188038
 N       -5.819376278    13.938105452   -10.817490341
 C       -7.142678436    14.440385660   -10.897591670
 C       -7.401721926    15.674598493   -10.266811542
 C       -8.672761461    16.222970168   -10.306227879
 C       -9.712472565    15.585980496   -11.001345666
 C       -9.441810049    14.379068826   -11.650337169
 C       -8.171978558    13.812737234   -11.614128086
 C       -5.456196312    12.913317298   -11.807695969
 C      -11.038353455    16.209082119   -11.011278122
 C      -12.102877296    15.694261073   -11.639102313
Si      -13.777826476    16.437822719   -11.678264453
 C      -14.948808878    15.228583098   -10.923605163
 C      -14.478941794    14.244623620   -10.047082355
 C      -15.360041484    13.328383193    -9.474142144
 C      -16.727897925    13.380693328    -9.756346245
 C      -17.195945428    14.370663888   -10.630756215
 C      -16.318368826    15.285040102   -11.208236615
 C      -17.686309729    12.443154346    -9.180085744
 C      -17.368966684    11.451095989    -8.331086132
 C      -18.326753789    10.513177708    -7.754410589
 C      -19.694368704    10.561245437    -8.038503719
 C      -20.574345631     9.644351755    -7.464632420
 C      -20.106096201     8.661208679    -6.586361330
 C      -18.736103271     8.611091786    -6.299720691
 C      -17.858567854     9.524066264    -6.879503998
Si      -21.269199412     7.445847473    -5.825064186
 C      -22.968823515     8.205403272    -5.652896077
 C      -21.357178677     5.944010099    -6.933220950
 C      -20.654220063     6.948590508    -4.131107205
 C      -13.852660030    18.029674099   -10.706586240
 C      -14.230087053    16.754229857   -13.462411121
 C       -5.267317607    12.575040029     1.447865862
 C       -2.742711989    13.751512719     0.198518285
 C       -0.614370960    -0.879007323    -1.530891629
 C       -0.616706651    -0.875223684     1.532021476
 H        1.270162123     2.738217905     0.066681358
 H        0.332409943     4.978269642     0.066142392
 H       -3.651801805     3.355478198    -0.068961050
 H       -2.757039481     1.094316839    -0.065988465
 H       -3.420282666     5.673443955    -0.036921556
 H       -0.541810251     6.810169857     0.061190290
 H       -0.320905813     9.135711029     0.093239045
 H       -1.229741618    11.392729564     0.089360024
 H       -5.247710043     9.723086544    -0.037758883
 H       -4.295314046     7.489437798    -0.044371954
 H       -5.429193997    13.713991179    -1.620101578
 H       -4.585652557    10.836584265    -2.494128950
 H       -5.293432144    10.104271634    -4.561491856
 H       -6.497126712    10.405181837    -6.678955653
 H       -7.543856432    14.428226370    -5.481589823
 H       -6.442190982    14.065549389    -3.334093645
 H       -8.959356845    13.850951135    -8.710543634
 H       -7.733577673    14.746771132    -7.772708803
 H       -9.186936873    14.064343713    -6.963690058
 H       -4.371035582    12.720606583   -11.739717734
 H       -5.653258343    13.306813255   -12.821304913
 H       -5.988272250    11.956293358   -11.692356637
 H       -6.592958322    16.196885887    -9.758774842
 H       -8.861319725    17.172742827    -9.804646136
 H      -10.232752052    13.866730082   -12.200537157
 H       -7.993967994    12.875566558   -12.133130020
 H      -11.078688046    17.150439954   -10.447661479
 H      -12.030862000    14.748319504   -12.200811162
 H      -13.418683315    14.157277565    -9.785913160
 H      -14.969762049    12.568653558    -8.798802634
 H      -18.257602654    14.428288111   -10.863453811
 H      -16.740324957    16.033404364   -11.884370051
 H      -18.723258440    12.599741386    -9.491340450
 H      -16.331786731    11.294705585    -8.019239645
 H      -20.085360259    11.318956193    -8.715280743
 H      -21.632486589     9.731892027    -7.726333632
 H      -18.312604991     7.865681676    -5.620812666
 H      -16.796813637     9.467518713    -6.645486881
 H       -7.336178091    10.864803746    -8.571146406
 H       -7.757955932    12.270305926    -9.572938176
 H       -5.118893494    12.092583644    -7.956047629
 H       -5.273135629    11.461406961    -9.591087802
 H       -5.743227341    14.405856029    -8.749323067
 H       -4.239987771    13.772635217    -9.463891236
 H        2.266468805    -1.030704274     0.017300277
 H        2.275022842     0.524447664     0.883332901
 H        2.273871862     0.494609613    -0.900915735
 H      -23.659237251     7.523271270    -5.125552952
 H      -23.417334643     8.433084705    -6.635645137
 H      -22.929275806     9.147752596    -5.076915436
 H      -21.715102362     6.210593160    -7.943974697
 H      -20.365312668     5.471524209    -7.050143110
 H      -22.044403656     5.182134814    -6.525363686
 H      -20.513669845     7.831693285    -3.481604684
 H      -21.372037997     6.277112902    -3.627215937
 H      -19.687986612     6.417280383    -4.185126908
 H      -13.581164351    17.867898786    -9.647364804
 H      -13.164123294    18.788244190   -11.119429423
 H      -14.870246195    18.460381777   -10.720894013
 H      -14.270222335    15.813523203   -14.041053971
 H      -15.216490503    17.242132619   -13.551530340
 H      -13.488439972    17.412287811   -13.951028394
 H       -6.087687620    11.840876548     1.354121466
 H       -4.765216973    12.389605167     2.414477018
 H       -5.724763533    13.578840535     1.495427457
 H       -2.039212366    13.729231039    -0.653435974
 H       -3.185810101    14.762851219     0.231432940
 H       -2.157266267    13.615877562     1.124930894
 H       -0.269240634    -0.370098526    -2.449268684
 H       -0.249910862    -1.920571867    -1.570292759
 H       -1.717657885    -0.909976510    -1.566234072
 H       -0.265069937    -0.369549438     2.449782745
 H       -1.720214519    -0.896647760     1.570250588
 H       -0.260795478    -1.919759129     1.569698674

