139   

Si        0.000000000     0.000000000     0.000000000
 C        1.869245635     0.000000000     0.000000000
 C       -0.639717511     1.732118165     0.000000000
 C        0.097763677     2.766968627    -0.585151516
 C       -0.388106735     4.074103567    -0.583525918
 C       -1.623468151     4.376367650    -0.004095392
 C       -2.363168469     3.338112037     0.577118608
 C       -1.879557738     2.032145121     0.578481652
 C       -2.171954264     5.728412817     0.021264885
 C       -1.566126502     6.810164680    -0.497102796
 C       -2.116080262     8.161572691    -0.470864433
 C       -3.351971073     8.461299660     0.109322178
 C       -3.839971427     9.767288474     0.112264279
 C       -3.107484592    10.801865253    -0.479916788
 C       -1.870072514    10.504291659    -1.063997014
 C       -1.379551595     9.200771264    -1.054219440
Si       -3.754341020    12.529585044    -0.475349609
 C       -3.214788016    13.373797437     1.058633342
 C       -2.467410956    12.803381113     2.012765820
 C       -2.038456945    13.482311285     3.237535074
 C       -1.255302639    12.773611941     4.162666175
 C       -0.824334649    13.370399361     5.335767248
 C       -1.139318326    14.718213370     5.601703171
 C       -1.924498862    15.428193756     4.682493365
 C       -2.382561021    14.804202366     3.526369921
 N       -0.667934197    15.273007164     6.823134871
 C        0.809018942    15.299844479     6.932178932
 C       -1.281210337    16.553446118     7.219133882
 C        1.517377269    16.061014129     5.796571987
 C        2.083904923    15.103112393     4.727861378
 N        2.163092237    15.698521326     3.382209893
 C        2.887104561    16.895881399     3.257309283
 C        4.047459571    17.094585479     4.037882564
 C        4.773843921    18.268520759     3.928163955
 C        4.409971725    19.265240506     3.010885488
 C        3.279227544    19.053253382     2.217499971
 C        2.528783924    17.889903936     2.326640045
 C        0.902239361    15.593685314     2.630712213
 C        5.212721674    20.486993243     2.936011199
 C        4.959522212    21.502755054     2.100062854
Si        5.937706836    23.045824531     1.975505667
 C        4.827896277    24.470018213     2.358513874
 C        3.624121673    24.268994061     3.041598983
 C        2.785896499    25.345247734     3.330791212
 C        3.134983287    26.644260087     2.951474362
 C        4.344115071    26.843365067     2.271514584
 C        5.182193501    25.770458981     1.978711345
 C        2.289109334    27.799714404     3.233025718
 C        1.109868393    27.745288671     3.875221580
 C        0.262883371    28.899605823     4.157540820
 C        0.607705544    30.199533982     3.777235784
 C       -0.232572787    31.273877349     4.067940059
 C       -1.435143303    31.072629166     4.753679669
 C       -1.782806617    29.770809505     5.135907914
 C       -0.945463713    28.698759394     4.837757986
Si       -2.551136197    32.491615882     5.140991860
 C       -1.557516593    34.067391262     5.297858930
 C       -3.789376878    32.660461232     3.751946844
 C       -3.444834681    32.177132586     6.752746082
 C        7.363199675    23.060944550     3.181388361
 C        6.578219181    23.186841531     0.225770822
 C       -3.092160709    13.474218082    -1.945141874
 C       -5.621429990    12.519396364    -0.535103450
 C       -0.630900385    -0.856844151    -1.535874952
 C       -0.603293981    -0.902485205     1.522118284
 H        1.070398074     2.592828489    -1.053708161
 H        0.206536042     4.861217587    -1.043971956
 H       -3.328267682     3.551079165     1.033392868
 H       -2.501652977     1.264570440     1.047144430
 H       -3.148270902     5.816209057     0.507546119
 H       -0.590568409     6.722363270    -0.984231466
 H       -3.945430595     7.672357470     0.567994139
 H       -4.809950073     9.940591216     0.587628279
 H       -1.253416997    11.271909616    -1.540546255
 H       -0.414011156     8.989734101    -1.510288732
 H       -3.559949394    14.415316761     1.145412860
 H       -2.112981768    11.764164222     1.946859431
 H       -0.992907516    11.733749318     3.962137968
 H       -0.253665483    12.798221439     6.064441460
 H       -2.185889209    16.467015130     4.861061251
 H       -3.008496249    15.368437342     2.833919738
 H       -0.980530594    16.783252308     8.256545214
 H       -2.380401992    16.447109785     7.220345299
 H       -1.005760770    17.407744381     6.581443087
 H        0.453647563    14.594048285     2.783944101
 H        1.110313989    15.685952861     1.549978204
 H        0.150198497    16.344418511     2.923157548
 H        4.375710819    16.326276947     4.731749205
 H        5.653974471    18.409700562     4.556136575
 H        2.973406043    19.811777008     1.494932478
 H        1.656162697    17.768061923     1.692732261
 H        6.054652797    20.494767660     3.640995253
 H        4.109157928    21.463971851     1.400172536
 H        3.300277725    23.274118101     3.365820647
 H        1.852214274    25.162573671     3.859734189
 H        4.634251976    27.847187530     1.967397161
 H        6.111670061    25.985705774     1.444847143
 H        2.685814000    28.754882410     2.876490680
 H        0.713536843    26.789812286     4.231591611
 H        1.540407939    30.384233053     3.247168914
 H        0.090864190    32.266658310     3.742965568
 H       -2.709432899    29.552685148     5.673951396
 H       -1.234674971    27.694236550     5.141184990
 H        1.068329502    15.751061344     7.916205386
 H        1.164083598    14.246343651     6.985884968
 H        0.817131779    16.776569413     5.323348521
 H        2.330452279    16.690186838     6.203042348
 H        3.102251775    14.758039380     5.017253572
 H        1.462509385    14.179648396     4.661634070
 H        2.267715014    -1.028032799     0.068702794
 H        2.270072407     0.568951038     0.858457228
 H        2.279537700     0.451355567    -0.920287370
 H       -2.198351127    34.915039085     5.599449220
 H       -1.073623471    34.343268492     4.344583921
 H       -0.762816761    33.965296234     6.059002540
 H       -3.286296862    32.849590522     2.786481055
 H       -4.390032865    31.740709386     3.634013813
 H       -4.488550205    33.495193021     3.934668220
 H       -2.730152513    31.989370587     7.574649215
 H       -4.063730875    33.044615507     7.043159678
 H       -4.114339778    31.301965839     6.686235881
 H        7.006723288    22.977227708     4.224349345
 H        8.057890676    22.222677185     2.995035189
 H        7.943122699    23.998024337     3.106280064
 H        5.748675101    23.261098857    -0.500520415
 H        7.215009202    24.078936832     0.095725867
 H        7.182124346    22.302943034    -0.048808342
 H       -1.996239196    13.601911180    -1.887018737
 H       -3.318128413    12.949479527    -2.891074527
 H       -3.538734775    14.482264165    -2.010069830
 H       -6.055615254    12.060063124     0.371099187
 H       -6.028293873    13.543415257    -0.611161704
 H       -5.988336711    11.949910614    -1.408202664
 H       -0.285190366    -0.344934873    -2.452077670
 H       -0.281606586    -1.903136825    -1.586031554
 H       -1.735301612    -0.871306587    -1.563702085
 H       -0.312574282    -0.367561553     2.444481607
 H       -1.702392320    -1.006092177     1.529269670
 H       -0.176027849    -1.919506284     1.578776299

