139   

Si        0.000000000     0.000000000     0.000000000
 C        1.869329615     0.000000000     0.000000000
 C       -0.644108894     1.730433542     0.000000000
 C        0.118343660     2.783311418     0.516428000
 C       -0.376530377     4.087203948     0.512162779
 C       -1.646502903     4.367416778     0.000620680
 C       -2.411284159     3.310779816    -0.511073057
 C       -1.918490360     2.008448933    -0.510936393
 C       -2.206530360     5.714630267    -0.025162067
 C       -1.581110492     6.814090403     0.428805506
 C       -2.146325181     8.159413802     0.400437866
 C       -1.385832371     9.221671359     0.907604350
 C       -1.884223199    10.522101453     0.901230534
 C       -3.161626107    10.788714713     0.393692848
 C       -3.923421312     9.730395466    -0.112291289
 C       -3.418393690     8.430755139    -0.111086098
Si       -3.831441906    12.508081828     0.380584682
 C       -5.658757096    12.409021215     0.293947278
 C       -6.420181100    12.921363096    -0.681696416
 C       -7.880473124    12.824172024    -0.720338637
 C       -8.571546040    13.401204971    -1.795961090
 C       -9.952354196    13.337017089    -1.879531619
 C      -10.695897131    12.642381210    -0.899978005
 C      -10.003704573    12.061716492     0.179239259
 C       -8.621918326    12.174683436     0.269839377
 N      -12.095843073    12.589219390    -1.003202201
 C      -12.673858225    12.501350007    -2.356427383
 C      -12.815889928    11.809516944     0.013731509
 C      -12.143816837    11.346838810    -3.224127685
 C      -12.758685010     9.977086162    -2.889440630
 N      -14.080113989     9.719694470    -3.486579402
 C      -14.194324328     9.790306784    -4.882988184
 C      -13.089287686     9.461294651    -5.698892034
 C      -13.191519976     9.527708296    -7.078567222
 C      -14.399106432     9.871568887    -7.702942108
 C      -15.500262704    10.166520271    -6.894598388
 C      -15.411286852    10.123100549    -5.509366396
 C      -15.210810151    10.220497796    -2.691851051
 C      -14.451626479     9.926859350    -9.164772088
 C      -15.547933414    10.242825153    -9.866490102
Si      -15.654262146    10.322920893   -11.693447571
 C      -16.136343047    12.038193478   -12.173779880
 C      -15.901367764    13.110273504   -11.304210615
 C      -16.265211026    14.404822845   -11.666743039
 C      -16.863590603    14.660462653   -12.907470578
 C      -17.091832891    13.588257465   -13.774883823
 C      -16.731859013    12.290500752   -13.413967453
 C      -17.227196397    16.033598063   -13.242439639
 C      -17.807819124    16.411488083   -14.393929716
 C      -18.171834253    17.784136895   -14.729966409
 C      -17.944972542    18.858285508   -13.864936109
 C      -18.309155216    20.154639300   -14.227264144
 C      -18.917512609    20.404879896   -15.461977383
 C      -19.146576162    19.330195981   -16.330133507
 C      -18.774875526    18.037550925   -15.968929115
Si      -19.400353410    22.120893456   -15.943252755
 C      -19.820775596    23.119784784   -14.419915491
 C      -17.960583755    22.907205647   -16.837849245
 C      -20.894172529    22.073591204   -17.066493001
 C      -14.020122437     9.918356078   -12.500959916
 C      -16.959223717     9.106738083   -12.249726412
 C       -3.374575143    13.392341864     1.961851434
 C       -3.115672382    13.413398672    -1.086914962
 C       -0.602730020    -0.899143852    -1.524395985
 C       -0.630082855    -0.860022511     1.534575840
 H        1.117875977     2.626244358     0.931154445
 H        0.238946656     4.889543053     0.915271300
 H       -3.403086494     3.507160574    -0.914425341
 H       -2.560865249     1.226270299    -0.924821711
 H       -3.210637962     5.783062626    -0.454837814
 H       -0.577451735     6.747654348     0.858625615
 H       -0.393093271     9.031177289     1.310885402
 H       -1.245479652    11.310666581     1.308085050
 H       -4.928007811     9.882171965    -0.521515738
 H       -4.029357643     7.624304258    -0.512707761
 H       -6.109871339    11.875161099     1.146155792
 H       -6.000016185    13.459796460    -1.541665185
 H       -8.015359880    13.921497947    -2.576864284
 H      -10.460714109    13.826332335    -2.705758878
 H      -10.534982514    11.523167857     0.956757154
 H       -8.111772068    11.728896762     1.125765714
 H      -13.902478781    11.868865155    -0.163583892
 H      -12.631776337    12.260842810     1.007544138
 H      -12.522940359    10.747500079     0.050951311
 H      -14.989827391    10.132442127    -1.615447335
 H      -16.095911562     9.585400094    -2.887532507
 H      -15.474462325    11.268231395    -2.911578758
 H      -12.147677869     9.157353275    -5.250279956
 H      -12.318044534     9.292005364    -7.688026586
 H      -16.453634420    10.435742473    -7.352989258
 H      -16.293037188    10.358631952    -4.922891836
 H      -13.492718691     9.682235889    -9.640988372
 H      -16.498278441    10.479808469    -9.361181581
 H      -15.434867644    12.969350332   -10.323420409
 H      -16.079505633    15.225587628   -10.976377707
 H      -17.555292571    13.759989754   -14.744654104
 H      -16.937201825    11.492461579   -14.132548647
 H      -16.989862080    16.771035021   -12.469848682
 H      -18.044948766    15.674020652   -15.166593405
 H      -17.477811389    18.689900630   -12.896151741
 H      -18.104096469    20.953336846   -13.508960893
 H      -19.618561853    19.464707008   -17.307337658
 H      -18.959341615    17.215821353   -16.658495959
 H      -13.780682404    12.444642677    -2.268916306
 H      -12.468890770    13.473117302    -2.868019388
 H      -12.323331653    11.584921593    -4.292870903
 H      -11.040476354    11.282956510    -3.125932710
 H      -12.072066522     9.166028088    -3.234020314
 H      -12.834398173     9.842751131    -1.788112076
 H        2.268200646    -1.028420744    -0.058709671
 H        2.279219232     0.460342696     0.916053567
 H        2.269524608     0.560584133    -0.864197169
 H      -20.171879722    24.131530014   -14.690379820
 H      -18.947794068    23.240674232   -13.754938667
 H      -20.622939925    22.635945500   -13.833658258
 H      -17.063217360    22.950102900   -16.194555169
 H      -17.688570453    22.335603490   -17.743358352
 H      -18.196786076    23.938930335   -17.152174524
 H      -21.734978074    21.537767788   -16.589783493
 H      -21.244927039    23.092604059   -17.308463672
 H      -20.673128655    21.565828483   -18.021506982
 H      -13.229140331    10.621114453   -12.181242167
 H      -13.686271663     8.896600233   -12.247006808
 H      -14.090389020     9.982306449   -13.601698625
 H      -17.954959736     9.376671455   -11.853784665
 H      -17.037251402     9.067622570   -13.350049156
 H      -16.727185269     8.085594737   -11.896060664
 H       -3.710546949    12.826659526     2.849732177
 H       -2.283299231    13.533098343     2.049601643
 H       -3.843928346    14.391915758     2.008165917
 H       -3.375948636    12.909658982    -2.035753235
 H       -3.489563910    14.451211761    -1.142723042
 H       -2.013168281    13.458577369    -1.031541774
 H       -0.307250228    -0.364412109    -2.445438804
 H       -0.179667107    -1.917783218    -1.581616421
 H       -1.702245502    -0.997440868    -1.534704739
 H       -0.284028856    -0.349286191     2.451330837
 H       -1.734399313    -0.874602748     1.563528215
 H       -0.280463607    -1.906265440     1.582232247

