139   

Si        0.000000000     0.000000000     0.000000000
 C        1.869720236     0.000000000     0.000000000
 C       -0.626954549     1.736902944     0.000000000
 C        0.112937900     2.760631940    -0.601756965
 C       -0.359863491     4.072356820    -0.602126008
 C       -1.585293661     4.390506478    -0.009823808
 C       -2.327498165     3.363301440     0.587360876
 C       -1.856289015     2.052625183     0.591882873
 C       -2.118789588     5.748752199     0.013221056
 C       -1.505325972     6.818930175    -0.519977253
 C       -2.035264755     8.178434888    -0.499071870
 C       -3.260218360     8.501671379     0.091996882
 C       -3.728368481     9.815070036     0.088824984
 C       -2.975002575    10.835591808    -0.500730317
 C       -1.747471628    10.515849711    -1.093531113
 C       -1.286380634     9.201697613    -1.094675465
Si       -3.589618148    12.575623783    -0.507877915
 C       -2.158619084    13.684837824    -0.787642253
 C       -2.020386435    14.535728019    -1.812816859
 C       -0.859694106    15.407905764    -2.002811590
 C       -0.823858296    16.259796565    -3.115831440
 C        0.252108291    17.103612464    -3.339336976
 C        1.367724410    17.085533192    -2.474606846
 C        1.333575022    16.228166892    -1.358994961
 C        0.226024022    15.423938399    -1.122973530
 N        2.454568749    17.949145458    -2.714204613
 C        2.773833868    18.235446628    -4.125442535
 C        3.661009211    17.740853484    -1.894638727
 C        3.149807094    16.977466963    -4.924197293
 C        3.427657779    17.331578314    -6.393711570
 N        3.767782775    16.155522184    -7.214949397
 C        4.932439022    15.447269328    -6.863332436
 C        6.039483803    16.134360193    -6.320300832
 C        7.190683856    15.446856871    -5.970817413
 C        7.307667024    14.067051935    -6.189429232
 C        6.222164399    13.393650096    -6.756533018
 C        5.055057791    14.064351407    -7.097645003
 C        2.584169750    15.353756384    -7.570706666
 C        8.545695641    13.388191294    -5.801849917
 C        8.764137698    12.076701828    -5.964652934
Si       10.293520872    11.183514061    -5.496447309
 C       10.998936863    10.423000844    -7.022510906
 C       10.763431398    11.010122415    -8.272057993
 C       11.292161886    10.442464372    -9.428396627
 C       12.073514241     9.281106189    -9.364534644
 C       12.309688010     8.700268504    -8.115242296
 C       11.778987813     9.264277141    -6.955433314
 C       12.605054981     8.724519093   -10.604462468
 C       13.363144434     7.617756628   -10.683743666
 C       13.894028320     7.062284791   -11.924446372
 C       13.657026207     7.644256644   -13.173246411
 C       14.183856322     7.079975249   -14.334033645
 C       14.954684779     5.913308350   -14.272702753
 C       15.192244777     5.327760755   -13.023583297
 C       14.670034450     5.897594634   -11.864589463
Si       15.645790677     5.177555779   -15.818575629
 C       14.379268025     5.297148780   -17.188598258
 C       17.182308484     6.131614966   -16.288326146
 C       16.080081259     3.379484265   -15.548344590
 C       11.569422436    12.329605999    -4.758692357
 C        9.834274148     9.860140183    -4.260073449
 C       -4.874077719    12.748658982    -1.851638277
 C       -4.337531899    13.001965275     1.150159592
 C       -0.633802853    -0.855079778    -1.535507339
 C       -0.606554577    -0.899842802     1.522199500
 H        1.077294358     2.574280937    -1.082609885
 H        0.237810993     4.851118482    -1.072768313
 H       -3.284629201     3.588767007     1.054223883
 H       -2.478939950     1.294329442     1.074465512
 H       -3.087977087     5.851504871     0.509928584
 H       -0.536112876     6.714559740    -1.017074981
 H       -3.861535675     7.725081517     0.560909249
 H       -4.694023320    10.006793073     0.564362938
 H       -1.118082330    11.275075646    -1.570129762
 H       -0.331061578     8.970913804    -1.562775955
 H       -1.381763228    13.601453745    -0.009879745
 H       -2.776935569    14.644052716    -2.600946064
 H       -1.662143650    16.271420008    -3.813102098
 H        0.229691915    17.778215761    -4.190232324
 H        2.166702250    16.185589397    -0.664322981
 H        0.220055265    14.780792558    -0.240987118
 H        4.431451621    18.481756499    -2.167109117
 H        4.096618273    16.733455381    -1.999470638
 H        3.412727847    17.916932155    -0.832284172
 H        1.739674792    16.018397080    -7.818900214
 H        2.260637246    14.667618158    -6.770458398
 H        2.804516330    14.766418681    -8.480589823
 H        5.996172774    17.208560800    -6.166511846
 H        8.024296532    15.995738635    -5.531426311
 H        6.285246325    12.319247630    -6.939562488
 H        4.237503595    13.499828136    -7.534898821
 H        9.289672612    14.063928131    -5.359933189
 H        7.996166768    11.423992370    -6.411223434
 H       10.159829477    11.917561315    -8.381972795
 H       11.095168916    10.909645281   -10.391704983
 H       12.912657120     7.797459011    -8.038133754
 H       11.995249362     8.763886304    -6.007744676
 H       12.340012584     9.283701666   -11.506817958
 H       13.628457411     7.058136840    -9.781943575
 H       13.056277109     8.548999130   -13.248682109
 H       13.966027959     7.582426467   -15.280705589
 H       15.785598014     4.415865925   -12.914280830
 H       14.867502100     5.427952058   -10.902680676
 H        1.898078315    18.746954418    -4.586187724
 H        3.602834760    18.978051641    -4.154059467
 H        4.035594508    16.486832053    -4.475726282
 H        2.337481793    16.227109260    -4.857857838
 H        2.542334168    17.830865510    -6.848830800
 H        4.258768893    18.069036318    -6.470661551
 H        2.268968529    -1.026345002     0.085520084
 H        2.269437654     0.583330253     0.849279715
 H        2.279461005     0.436723621    -0.927495570
 H       14.733284596     4.794216476   -18.105892310
 H       14.157546759     6.346284502   -17.451019536
 H       13.426851047     4.819802177   -16.894351934
 H       16.958296817     7.201105605   -16.451156458
 H       17.949157844     6.073728079   -15.494813977
 H       17.632070107     5.738867712   -17.217033284
 H       15.204757196     2.803807642   -15.197155653
 H       16.431242070     2.909538825   -16.484386372
 H       16.882418881     3.260279554   -14.799234610
 H       11.858396585    13.122677946    -5.472321338
 H       11.190830023    12.819867913    -3.844403357
 H       12.490134027    11.782462936    -4.487137219
 H        9.146071162     9.117260914    -4.702306985
 H       10.723200915     9.316807857    -3.895364498
 H        9.327795489    10.297126801    -3.380195695
 H       -4.452489468    12.507150743    -2.844418343
 H       -5.725921665    12.065731436    -1.682820554
 H       -5.274816562    13.776865348    -1.896808215
 H       -3.616312601    12.838086003     1.971342018
 H       -4.645326626    14.062858494     1.186698425
 H       -5.230299590    12.388981889     1.363788418
 H       -0.290821593    -0.342439209    -2.452270423
 H       -0.284772093    -1.901350366    -1.586976749
 H       -1.738308622    -0.869209567    -1.561094415
 H       -0.307080947    -0.370759560     2.445110419
 H       -1.706590779    -0.992479152     1.532583987
 H       -0.189122666    -1.921136208     1.575213168

