139   

Si        0.000000000     0.000000000     0.000000000
 C        1.869486659     0.000000000     0.000000000
 C       -0.638010716     1.732578489     0.000000000
 C        0.130283357     2.780728244    -0.517510450
 C       -0.357381367     4.087288829    -0.514581718
 C       -1.625420484     4.375467215    -0.002524953
 C       -2.395866097     3.323546379     0.510528468
 C       -1.910403850     2.018326143     0.511137521
 C       -2.176876350     5.726413731     0.021314574
 C       -1.542544403     6.819483701    -0.435571626
 C       -2.093478874     8.170659642    -0.411999094
 C       -3.361964009     8.458428741     0.100320630
 C       -3.849700733     9.764732190     0.103322811
 C       -3.073122876    10.813493529    -0.400363733
 C       -1.801929342    10.529162180    -0.914121549
 C       -1.320983699     9.222176345    -0.922247220
Si       -3.711732654    12.545212589    -0.399834682
 C       -2.279365974    13.684129522    -0.465914426
 C       -2.042781322    14.583121858    -1.430576482
 C       -0.885659032    15.479053592    -1.451583931
 C       -0.743024531    16.381021576    -2.516128651
 C        0.333531004    17.249508256    -2.582545056
 C        1.346194115    17.209558243    -1.597271558
 C        1.205175424    16.301407474    -0.528987190
 C        0.095219417    15.471040040    -0.455623604
 N        2.427501188    18.093650978    -1.678376125
 C        2.924029619    18.463942469    -3.012864052
 C        3.463398800    18.004314612    -0.641734360
 C        3.232963344    17.287531162    -3.957422078
 C        4.553794683    16.556585648    -3.658570276
 N        5.793671490    17.327500964    -3.879119608
 C        6.216761080    18.115996146    -2.780039200
 C        6.528343739    17.440047966    -1.582382617
 C        6.947859326    18.151019513    -0.470693106
 C        7.109257343    19.544603482    -0.523651621
 C        6.828985779    20.205109732    -1.721612016
 C        6.398355711    19.505416336    -2.844301275
 C        5.865038635    17.966309125    -5.201634844
 C        7.555462810    20.243493183     0.683359858
 C        7.747694554    21.566662280     0.764750573
Si        8.306536912    22.431573967     2.280914610
 C        8.546662963    21.189910021     3.624709071
 C        7.485086140    20.842874426     4.467412396
 C        7.663801547    19.905005304     5.483524724
 C        8.900768932    19.281662960     5.670929234
 C        9.960003030    19.624315954     4.820214870
 C        9.786535937    20.565734358     3.808617835
 C        9.133450063    18.294916224     6.720512211
 C        8.205025054    17.880359281     7.599149118
 C        8.436594923    16.893668355     8.649141087
 C        9.674441572    16.274244186     8.842349066
 C        9.851087035    15.336279877     9.859036889
 C        8.793542868    15.002669751    10.712078448
 C        7.552263235    15.622531243    10.520691633
 C        7.376543861    16.553222499     9.499640590
Si        9.025218767    13.760829708    12.059110482
 C       10.802063158    13.768020517    12.639983608
 C        7.914160558    14.170913576    13.505461378
 C        8.587980932    12.074882481    11.382846024
 C        9.912087716    23.314834170     1.918061097
 C        7.010200847    23.681649279     2.777912742
 C       -4.839023614    12.762592709    -1.872371252
 C       -4.651698404    12.886212447     1.178690940
 C       -0.631277469    -0.858719813    -1.534747256
 C       -0.604904019    -0.897925900     1.524209763
 H        1.128791150     2.617978950    -0.932527206
 H        0.262414227     4.885333740    -0.919668535
 H       -3.386452579     3.525755886     0.913937190
 H       -2.557026755     1.239887528     0.925370452
 H       -3.180078224     5.803150043     0.450815239
 H       -0.539382591     6.742375126    -0.865385938
 H       -3.982197426     7.659556241     0.502346077
 H       -4.849197886     9.928316794     0.515210464
 H       -1.152672855    11.312098070    -1.320555308
 H       -0.331572687     9.019285562    -1.327981507
 H       -1.593281149    13.575381263     0.389773956
 H       -2.708898327    14.716760547    -2.293156455
 H       -1.499996741    16.412049608    -3.300435315
 H        0.393383865    17.965701131    -3.396317014
 H        1.958303428    16.240229536     0.249989803
 H        0.002716548    14.787772916     0.390572732
 H        4.215212597    18.802745430    -0.786335836
 H        3.993980618    17.038211283    -0.628526192
 H        3.004381929    18.177727514     0.349067908
 H        5.660818095    17.207388400    -5.977010575
 H        6.894377642    18.332171163    -5.369008375
 H        5.166141747    18.805497382    -5.342070057
 H        6.448351270    16.355306777    -1.541992410
 H        7.175470906    17.616501963     0.453068729
 H        6.950515316    21.286911418    -1.787718975
 H        6.192392044    20.049514837    -3.760932757
 H        7.722716769    19.567226827     1.535082938
 H        7.576626945    22.226513580    -0.098840854
 H        6.492666300    21.292042239     4.366817671
 H        6.824547768    19.659069809     6.131660900
 H       10.931560628    19.150719668     4.949056921
 H       10.650053861    20.793079177     3.176765403
 H       10.150639344    17.893644632     6.754101044
 H        7.187706376    18.281752084     7.565791657
 H       10.514950860    16.520203527     8.195736269
 H       10.841898970    14.884309328     9.958902579
 H        6.689967484    15.402056079    11.156105467
 H        6.403358075    17.022165470     9.365643317
 H        2.151642379    19.120332488    -3.482217114
 H        3.827528617    19.105442234    -2.893842523
 H        2.407060071    16.546136447    -3.910929510
 H        3.231431113    17.654061933    -5.000965472
 H        4.539742274    16.177316385    -2.612357294
 H        4.625120419    15.653608273    -4.312083886
 H        2.268238878    -1.027798423     0.069393229
 H        2.269801142     0.569586145     0.858250498
 H        2.279229664     0.450558368    -0.920928637
 H       10.947410197    13.075340070    13.488114447
 H       11.108627876    14.774679396    12.977654200
 H       11.496442355    13.458539219    11.839402703
 H        8.100812618    15.195489196    13.875298064
 H        6.846023584    14.103409780    13.234689817
 H        8.084942795    13.477796800    14.348501397
 H        9.226602343    11.809056484    10.521240304
 H        8.714437673    11.288571516    12.147662183
 H        7.539079955    12.039685158    11.037313835
 H       10.677331466    22.623290768     1.522046232
 H        9.771521087    24.113490263     1.168097915
 H       10.323962400    23.783473916     2.830240544
 H        6.017596753    23.212853642     2.902337210
 H        7.272511513    24.168517955     3.734769914
 H        6.905418485    24.476344364     2.017983580
 H       -4.303996585    12.570492698    -2.820220409
 H       -5.692924191    12.062961912    -1.830650787
 H       -5.248935188    13.787155715    -1.918233657
 H       -4.029862884    12.681997632     2.069100585
 H       -4.968109250    13.943919328     1.231707622
 H       -5.559460702    12.263240770     1.255371618
 H       -0.285341895    -0.348594512    -2.451840514
 H       -0.283189099    -1.905399968    -1.582899186
 H       -1.735673764    -0.871618239    -1.562975995
 H       -0.307618299    -0.365032612     2.445689850
 H       -1.704695807    -0.992882723     1.534828833
 H       -0.184741765    -1.917847473     1.580178358

