139   

Si        0.000000000     0.000000000     0.000000000
 C        1.869007784     0.000000000     0.000000000
 C       -0.593262278     1.746537330     0.000000000
 C       -0.275599567     2.582486238    -1.077405331
 C       -0.712589836     3.905527540    -1.099646327
 C       -1.473318815     4.423615730    -0.047125791
 C       -1.789450007     3.585846653     1.029436389
 C       -1.355829499     2.262042140     1.053748661
 C       -1.951623014     5.801805131    -0.028718322
 C       -1.718757127     6.702488687    -0.998438861
 C       -2.196643014     8.080602804    -0.980738286
 C       -2.956737302     8.598754956     0.070600778
 C       -3.394072496     9.922948536     0.048276222
 C       -3.104517767    10.749905173    -1.041052545
 C       -2.347525007    10.231067254    -2.100490028
 C       -1.893817364     8.915166005    -2.065047173
Si       -3.676898777    12.501756203    -1.082426230
 C       -4.503239491    12.973288172    -2.650422648
 C       -5.768375906    13.410692607    -2.720004118
 C       -6.463452117    13.796414140    -3.949559339
 C       -7.793564678    14.235570785    -3.853017518
 C       -8.508176881    14.614924382    -4.976136695
 C       -7.915511194    14.537792980    -6.255193381
 C       -6.585345297    14.091752530    -6.356195759
 C       -5.875043925    13.735813833    -5.215144534
 N       -8.676725112    14.932839294    -7.367354947
 C      -10.079860700    14.491497000    -7.476570665
 C       -7.967475006    15.024244490    -8.651001522
 C      -10.386510831    13.087147676    -6.923101600
 C      -11.055437781    12.171044633    -7.968996774
 N      -10.179981947    11.713886595    -9.067127887
 C       -8.907512147    11.241941072    -8.680763974
 C       -8.850582461    10.291020861    -7.639445279
 C       -7.630586795     9.793938526    -7.219895644
 C       -6.430173667    10.251544266    -7.787333454
 C       -6.492092795    11.170361590    -8.834839041
 C       -7.715640570    11.628944499    -9.313344221
 C      -10.239640531    12.545877938   -10.277199417
 C       -5.178535285     9.680655478    -7.293830010
 C       -3.954254612    10.007533205    -7.727769232
Si       -2.426460627     9.244996421    -7.057364206
 C       -2.920758793     8.029398082    -5.760145233
 C       -3.695636571     8.440979068    -4.667189794
 C       -4.070648111     7.527070559    -3.686406003
 C       -3.700634604     6.178835259    -3.781936358
 C       -2.935211926     5.770741785    -4.876942519
 C       -2.547119123     6.686169576    -5.855166393
 C       -4.117356008     5.259210246    -2.729253929
 C       -3.817854682     3.949603704    -2.697946280
 C       -4.234824484     3.030148515    -1.644923444
 C       -5.000996008     3.439770918    -0.549297666
 C       -5.378242870     2.528661426     0.435093249
 C       -5.003710101     1.182921217     0.339995624
 C       -4.239900084     0.770011200    -0.756948517
 C       -3.859479135     1.684215264    -1.737007959
Si       -5.516459015    -0.002101475     1.657053069
 C       -7.367568011     0.098438447     1.890599726
 C       -5.044174364    -1.750296067     1.190786281
 C       -4.637192779     0.471402739     3.238703369
 C       -1.484032448     8.428827480    -8.446054770
 C       -1.379115050    10.575640944    -6.264575342
 C       -4.817575130    12.831369279     0.364208936
 C       -2.154532895    13.579975713    -0.915925495
 C       -0.644181704    -0.848796037    -1.537222118
 C       -0.621158582    -0.911183531     1.509628390
 H        0.315294706     2.234016850    -1.928525001
 H       -0.457639531     4.536026746    -1.949838465
 H       -2.387856502     3.966479756     1.854712679
 H       -1.641260811     1.653349588     1.915632555
 H       -2.534128689     6.071432238     0.856555842
 H       -1.142036224     6.429612880    -1.887659700
 H       -3.208970163     7.970854424     0.922965220
 H       -3.976411718    10.271491673     0.904921713
 H       -2.093534608    10.829308745    -2.980329518
 H       -1.315860784     8.521539516    -2.902263801
 H       -3.883264657    12.874275859    -3.553687665
 H       -6.405686603    13.511752988    -1.829649412
 H       -8.273858692    14.288884885    -2.875745480
 H       -9.528011764    14.974930146    -4.876754312
 H       -6.106244225    13.990996611    -7.325138260
 H       -4.847445980    13.383827261    -5.321472024
 H       -8.609599581    15.522046031    -9.396097734
 H       -7.646824626    14.047579899    -9.048930488
 H       -7.073194832    15.663699430    -8.526273916
 H      -11.294341059    12.734175962   -10.540986495
 H       -9.797465087    11.983133293   -11.120710596
 H       -9.720796988    13.513016822   -10.190697865
 H       -9.769676061     9.937037151    -7.179605286
 H       -7.601822953     9.046053037    -6.424872013
 H       -5.573498470    11.521550023    -9.305534055
 H       -7.730931378    12.299233065   -10.166154171
 H       -5.347381468     8.921422762    -6.512321912
 H       -3.799215516    10.759561063    -8.512590135
 H       -4.014891195     9.481256221    -4.535723822
 H       -4.658011860     7.868477837    -2.834012287
 H       -2.634703424     4.729566033    -4.975616770
 H       -1.947872510     6.306863929    -6.686620095
 H       -4.708307798     5.716219920    -1.929825317
 H       -3.220453057     3.493707210    -3.492391549
 H       -5.304458837     4.481123946    -0.455634259
 H       -5.972466809     2.908204761     1.270491387
 H       -3.920200555    -0.267650717    -0.882646953
 H       -3.256897580     1.346808207    -2.578161327
 H      -10.685222221    15.246077620    -6.914527380
 H      -10.409918868    14.575711392    -8.533400443
 H       -9.458052980    12.603413413    -6.550457649
 H      -11.038533299    13.163040671    -6.034311061
 H      -11.437309199    11.253591770    -7.458447566
 H      -11.948689669    12.670200786    -8.401823430
 H        2.272813558    -1.027186589    -0.005375312
 H        2.268081026     0.510752691     0.895160748
 H        2.273926672     0.523130953    -0.884201848
 H       -7.714301221    -0.602265817     2.669932672
 H       -7.901436456    -0.152635736     0.955948871
 H       -7.686169138     1.112725748     2.188606455
 H       -5.524498116    -2.058122998     0.244898835
 H       -3.952074992    -1.856758026     1.062794630
 H       -5.357394913    -2.468771214     1.968666208
 H       -4.884578364     1.503686310     3.543195197
 H       -4.916184200    -0.198562054     4.070039178
 H       -3.540116300     0.416168440     3.117792397
 H       -2.089914437     7.645372461    -8.936998832
 H       -1.202546220     9.160001977    -9.224548265
 H       -0.553774954     7.957196915    -8.084026507
 H       -1.935088509    11.104357004    -5.468745625
 H       -0.468968371    10.146700627    -5.808842682
 H       -1.058397213    11.329239526    -7.004402978
 H       -5.711883758    12.184324397     0.330896528
 H       -4.308692287    12.652931234     1.327763098
 H       -5.163197198    13.880860252     0.367047775
 H       -1.442885604    13.407249129    -1.742055568
 H       -2.422294874    14.651337822    -0.922913839
 H       -1.621782642    13.373245502     0.029110532
 H       -0.268135874    -0.362917130    -2.454525846
 H       -0.336910059    -1.908155333    -1.570625376
 H       -1.748357898    -0.818370359    -1.575275128
 H       -0.252787376    -0.446995136     2.441575286
 H       -1.725049894    -0.916969970     1.551210259
 H       -0.284010019    -1.962546380     1.508443428

