139   

Si        0.000000000     0.000000000     0.000000000
 C        1.868863063     0.000000000     0.000000000
 C       -0.658751216     1.724654165     0.000000000
 C        0.189267892     2.835232231    -0.035584962
 C       -0.334403377     4.128359002    -0.034752918
 C       -1.714913853     4.339836549    -0.002447255
 C       -2.563922441     3.225058581     0.031913531
 C       -2.044471405     1.933654992     0.033866389
 C       -2.308183487     5.672714048    -0.000260468
 C       -1.611028699     6.821305723    -0.028397335
 C       -2.210252296     8.151576588    -0.026038082
 C       -1.368686631     9.271963272    -0.057497056
 C       -1.897117564    10.560756685    -0.056505955
 C       -3.283168099    10.756843922    -0.041273305
 C       -4.124833165     9.640062610    -0.015050653
 C       -3.593366796     8.351532801    -0.004227830
Si       -4.003947037    12.456247419    -0.039689328
 C       -5.782186996    12.299915095    -0.443261932
 C       -6.787231047    12.692059738     0.350517462
 C       -8.203280426    12.556157613     0.004875708
 C       -9.165806213    13.005999519     0.923058875
 C      -10.517316184    12.900684542     0.645046858
 C      -10.949007400    12.296730276    -0.553716868
 C       -9.991590366    11.843984329    -1.472621187
 C       -8.635766530    11.993055729    -1.196500820
 N      -12.347375404    12.218634594    -0.781286501
 C      -13.112486174    11.484840610     0.243337573
 C      -12.761814102    11.904450168    -2.157694966
 C      -13.089416081     9.946059973     0.134684192
 C      -11.712972781     9.341508957     0.471304128
 N      -11.292338434     9.704838267     1.838754730
 C       -9.906017860     9.609032845     2.123065538
 C       -8.960425237     9.091795798     1.222654699
 C       -7.618324730     9.032198766     1.578181661
 C       -7.171328172     9.518705894     2.812321082
 C       -8.114864969    10.056944898     3.695496926
 C       -9.459593235    10.109685693     3.362140674
 C      -12.138644129     9.122141072     2.902291256
 C       -5.745810863     9.432581735     3.139656340
 C       -5.212793806     9.866502502     4.289128453
Si       -3.439215135     9.781312295     4.744780574
 C       -3.312986863     8.762165725     6.279306962
 C       -4.190081287     7.686749156     6.471791601
 C       -4.108653003     6.908121935     7.622970979
 C       -3.146042455     7.178523149     8.604996596
 C       -2.269617941     8.248999609     8.407158377
 C       -2.350427627     9.032844773     7.256280115
 C       -3.100895565     6.333587184     9.793946551
 C       -2.232827755     6.485148713    10.808631879
 C       -2.188967020     5.639306023    11.996987273
 C       -3.065928440     4.569081639    12.193737182
 C       -2.988560830     3.786152167    13.345235870
 C       -2.036861392     4.063078580    14.332240547
 C       -1.157352665     5.136004056    14.138137739
 C       -1.231349108     5.910668209    12.983333913
Si       -1.927482526     3.031875073    15.859538388
 C       -3.574412451     2.220106834    16.211362224
 C       -0.622544378     1.721640202    15.591024905
 C       -1.459700561     4.105642462    17.316851733
 C       -2.414876674     8.968220015     3.419201177
 C       -2.823641054    11.518457338     5.051883957
 C       -3.758565937    13.219806161     1.645087811
 C       -3.178412034    13.499597602    -1.350254228
 C       -0.619118288    -0.876139399    -1.530219977
 C       -0.614147207    -0.875386328     1.532788463
 H        1.277582560     2.733006183    -0.062554848
 H        0.348195677     4.976127497    -0.060339890
 H       -3.642635502     3.367717521     0.058961991
 H       -2.755664522     1.103314340     0.063045220
 H       -3.402187858     5.685175786     0.028649665
 H       -0.517788910     6.809626194    -0.055483874
 H       -0.289254837     9.136538338    -0.080040775
 H       -1.193472249    11.396877429    -0.074292698
 H       -5.216847070     9.739844861    -0.004671876
 H       -4.268535734     7.497869817     0.018313239
 H       -5.975912163    11.850895709    -1.429998426
 H       -6.624736394    13.140253427     1.340346702
 H       -8.846971607    13.447171621     1.867702241
 H      -11.252136339    13.273072969     1.355704713
 H      -10.292956220    11.376365540    -2.403950644
 H       -7.906987464    11.645272273    -1.929299010
 H      -13.855108781    12.029824474    -2.238686304
 H      -12.502238290    10.887937541    -2.491782128
 H      -12.298661956    12.632223240    -2.848055101
 H      -13.106828653     8.777804522     2.510541138
 H      -12.342980619     9.909159807     3.650529609
 H      -11.662073743     8.269743104     3.413521169
 H       -9.263876014     8.713615113     0.251790471
 H       -6.904789224     8.603395646     0.873823899
 H       -7.793300909    10.448967830     4.661199318
 H      -10.174030254    10.546888076     4.054392690
 H       -5.141308729     8.976224233     2.342507037
 H       -5.841565199    10.323590034     5.069968199
 H       -4.961243252     7.429686415     5.737753658
 H       -4.800690382     6.079009822     7.757882067
 H       -1.512544133     8.480097822     9.154027025
 H       -1.639248623     9.857023880     7.157181222
 H       -3.846592235     5.533158237     9.814171015
 H       -1.486571612     7.284760419    10.788520307
 H       -3.819678561     4.335791586    11.443814945
 H       -3.700031866     2.961265653    13.440474144
 H       -0.393328749     5.399725974    14.874585626
 H       -0.537047045     6.738275114    12.849490975
 H      -12.734289370    11.778608684     1.252336709
 H      -14.164411103    11.845697943     0.181733075
 H      -13.865620256     9.534628728     0.807000388
 H      -13.378533334     9.627693134    -0.883633243
 H      -11.738475852     8.240755144     0.319532819
 H      -10.964528705     9.757167318    -0.247083218
 H        2.266602098    -1.030474460     0.024992128
 H        2.273864811     0.530734588     0.880304731
 H        2.275063665     0.488015239    -0.903788065
 H       -3.547293472     1.658665827    17.162225875
 H       -3.858248099     1.508074611    15.416761121
 H       -4.381578103     2.970489128    16.292348229
 H       -0.874349403     1.074117807    14.731801345
 H        0.364212588     2.173206282    15.383632557
 H       -0.514068883     1.072940442    16.477771445
 H       -2.178406851     4.934828882    17.448536221
 H       -1.448835757     3.523158799    18.255109192
 H       -0.457168705     4.550979520    17.192821642
 H       -2.743296332     7.929456295     3.228679919
 H       -2.486182171     9.516186761     2.458670339
 H       -1.347337620     8.926755489     3.698298251
 H       -3.371241225    12.002139583     5.879770612
 H       -1.750294129    11.526791955     5.309244636
 H       -2.952036622    12.149031684     4.152936568
 H       -4.339755858    12.674442493     2.413684640
 H       -2.697495015    13.197413602     1.948787802
 H       -4.090342363    14.273035252     1.662144428
 H       -3.257543423    13.031573031    -2.347984977
 H       -3.646274250    14.498629265    -1.417391551
 H       -2.105869638    13.648239454    -1.136727346
 H       -0.274045236    -0.368509186    -2.449306125
 H       -0.258721842    -1.919064996    -1.570412893
 H       -1.722665310    -0.902669319    -1.563620724
 H       -0.274010501    -0.360290384     2.449971440
 H       -1.717333656    -0.911572094     1.565760546
 H       -0.244547315    -1.914867041     1.578116527

