139   

Si        0.000000000     0.000000000     0.000000000
 C        1.869336875     0.000000000     0.000000000
 C       -0.625385772     1.737122717     0.000000000
 C        0.033207505     2.723435319    -0.743219984
 C       -0.432398365     4.037522343    -0.748705571
 C       -1.570841023     4.395302504    -0.020581291
 C       -2.231873451     3.405785010     0.718354115
 C       -1.766564392     2.092842912     0.728837100
 C       -2.094072016     5.757381362     0.003028369
 C       -1.553314730     6.795804667    -0.656652337
 C       -2.076350198     8.158064570    -0.633230709
 C       -3.214771846     8.516287071     0.094763539
 C       -3.680206266     9.830720404     0.089064365
 C       -3.009117788    10.817137852    -0.640817047
 C       -1.867979573    10.462815600    -1.370995161
 C       -1.410557264     9.147469836    -1.368612168
Si       -3.617197631    12.558800661    -0.654508716
 C       -2.207931553    13.642777738    -1.100048310
 C       -2.157169150    14.454282836    -2.163981565
 C       -1.011677578    15.307988116    -2.488983433
 C       -1.076475703    16.117281568    -3.633961713
 C       -0.020409076    16.941824378    -3.984440337
 C        1.155263035    16.955921859    -3.206463685
 C        1.222815019    16.152469736    -2.058933603
 C        0.140407968    15.355824939    -1.700607607
 N        2.196988074    17.823589497    -3.622391245
 C        2.767602498    17.521708105    -4.951108299
 C        3.207246889    18.151750131    -2.605095582
 C        3.905971062    16.487150851    -4.988082088
 C        3.484039762    15.053451126    -4.616337928
 N        2.752822602    14.314050026    -5.657520107
 C        3.309991707    14.267879587    -6.941924496
 C        4.713201095    14.187563137    -7.089004477
 C        5.283680087    14.140923401    -8.349687841
 C        4.490041977    14.124657594    -9.506325976
 C        3.101491797    14.173997456    -9.357493823
 C        2.511493320    14.237660789    -8.101913496
 C        1.290569096    14.390810589    -5.550819524
 C        5.147184156    14.074998951   -10.812685130
 C        4.498951682    14.055360916   -11.985240280
Si        5.317485144    13.993258830   -13.621312052
 C        7.148739935    13.962803935   -13.390839096
 C        7.856566335    15.155886898   -13.205748315
 C        9.239619591    15.140350486   -13.031089050
 C        9.945173795    13.933523245   -13.025293762
 C        9.234019000    12.739953944   -13.203507843
 C        7.852754125    12.752704555   -13.382926110
 C       11.391956989    13.868989847   -12.845941161
 C       12.188734140    14.936122587   -12.666124748
 C       13.635542399    14.871945086   -12.486742801
 C       14.342658195    13.666379733   -12.485371041
 C       15.725983998    13.651618489   -12.310434973
 C       16.435623452    14.845480815   -12.141362492
 C       15.729275280    16.054838027   -12.143457894
 C       14.346714211    16.066214054   -12.310845239
Si       18.267422143    14.827154372   -11.909631739
 C       19.011488932    13.363549599   -12.803500248
 C       19.015538593    16.397827621   -12.593986151
 C       18.625796815    14.699788021   -10.080154375
 C        4.749123299    12.456403194   -14.520425348
 C        4.824803083    15.502028195   -14.608546272
 C       -5.012977079    12.694558480    -1.886138329
 C       -4.213086264    13.052817143     1.045111625
 C       -0.633503944    -0.850664202    -1.538471658
 C       -0.606551945    -0.908971436     1.516847933
 H        0.926657547     2.504056528    -1.334636955
 H        0.101097438     4.786516534    -1.331562847
 H       -3.120564171     3.662225693     1.292205476
 H       -2.323681367     1.365313609     1.325424709
 H       -2.991258402     5.892081447     0.614466117
 H       -0.656490710     6.661203424    -1.268810554
 H       -3.750635402     7.766470070     0.673951645
 H       -4.576498064    10.050455353     0.675335130
 H       -1.305125361    11.194675906    -1.960363005
 H       -0.523397266     8.889106148    -1.944481606
 H       -1.364929744    13.578544719    -0.392255099
 H       -2.980962555    14.541931903    -2.884404002
 H       -1.975952966    16.108840184    -4.250359026
 H       -0.096921980    17.594912394    -4.851834491
 H        2.113163348    16.149349298    -1.436921022
 H        0.207955804    14.748603622    -0.796435207
 H        3.859223783    18.952697750    -2.995634298
 H        3.840337650    17.304482719    -2.298857187
 H        2.698784022    18.553766871    -1.710139102
 H        0.985404139    14.357966634    -4.488130665
 H        0.843726620    13.503912810    -6.036810286
 H        0.859923729    15.301203641    -5.998267047
 H        5.351700953    14.159688485    -6.211058411
 H        6.370083282    14.098946680    -8.442081873
 H        2.461446267    14.161656809   -10.240744659
 H        1.429649455    14.278841535    -8.032208319
 H        6.244903413    14.054177226   -10.742758979
 H        3.399804511    14.074541203   -12.032054508
 H        7.359129613    16.130217050   -13.195635029
 H        9.767877730    16.082306174   -12.895646080
 H        9.763846465    11.789224416   -13.201775157
 H        7.352016530    11.789512930   -13.516445530
 H       11.810856446    12.858519038   -12.867049584
 H       11.770083322    15.946681026   -12.645353094
 H       13.815160242    12.723749379   -12.620367389
 H       16.222636295    12.677332275   -12.316678133
 H       16.229917516    17.018752189   -12.016739470
 H       13.815754979    17.016419701   -12.307608161
 H        1.950450924    17.199834559    -5.634511766
 H        3.144361834    18.491544540    -5.357400361
 H        4.346783620    16.491271129    -6.008042024
 H        4.727956102    16.804716863    -4.319485782
 H        4.393244441    14.455190997    -4.364739739
 H        2.869657607    15.064822109    -3.687140389
 H        2.268963540    -1.027958309     0.059261391
 H        2.268929914     0.562137866     0.863670081
 H        2.279257935     0.461736205    -0.915243690
 H       20.113536662    13.368203146   -12.728625743
 H       18.751957828    13.377010475   -13.877667973
 H       18.657032524    12.404636560   -12.386755516
 H       18.748671548    16.537001020   -13.657355980
 H       18.670227354    17.290466293   -12.043764865
 H       20.117976652    16.376228113   -12.528577391
 H       18.199098944    13.775543664    -9.650610377
 H       19.711929641    14.690007379    -9.881865760
 H       18.191983395    15.550924808    -9.525116914
 H        4.931838231    11.545282730   -13.922730217
 H        3.666533581    12.495039546   -14.735920389
 H        5.276402446    12.338678879   -15.483893493
 H        5.059891037    16.436352712   -14.068321118
 H        5.353838891    15.534237966   -15.577940803
 H        3.740914335    15.507381419   -14.819806140
 H       -4.681764169    12.413329011    -2.902523247
 H       -5.850176152    12.024589235    -1.618804460
 H       -5.412062376    13.723312611    -1.933530361
 H       -3.425150615    12.907729253     1.806464144
 H       -4.506162492    14.118255675     1.071190915
 H       -5.090596438    12.459620122     1.356660753
 H       -0.288236783    -0.337069464    -2.453711482
 H       -0.287199293    -1.897717211    -1.591724664
 H       -1.738101770    -0.862143457    -1.564955451
 H       -0.313190356    -0.382775799     2.443184712
 H       -1.706087606    -1.008884344     1.522178487
 H       -0.183389783    -1.928187291     1.566446403

