139   

Si        0.000000000     0.000000000     0.000000000
 C        1.869230900     0.000000000     0.000000000
 C       -0.645136035     1.729811816     0.000000000
 C        0.087587307     2.770022689    -0.581446368
 C       -0.405731782     4.074544058    -0.577920455
 C       -1.644512037     4.367779095    -0.001224301
 C       -2.379694445     3.323876969     0.575781545
 C       -1.888398828     2.020969207     0.575782039
 C       -2.202874098     5.715511329     0.027285926
 C       -1.606433344     6.805506945    -0.484779351
 C       -2.173017111     8.150158223    -0.451484527
 C       -3.414502922     8.428153152     0.129494612
 C       -3.920600729     9.726071531     0.140802494
 C       -3.196357233    10.777346425    -0.436239014
 C       -1.955416851    10.502542646    -1.019527691
 C       -1.450277491     9.203488813    -1.025120151
Si       -3.905783082    12.479295362    -0.397747251
 C       -4.099529355    13.026943604     1.341080039
 C       -3.770915734    12.290698668     2.410547580
 C       -3.928142104    12.733954064     3.797317294
 C       -3.544047961    11.862969146     4.829572368
 C       -3.671819430    12.232836852     6.157915623
 C       -4.233856376    13.480967312     6.494746783
 C       -4.618698879    14.353542067     5.466889675
 C       -4.445151597    13.985630932     4.136281571
 N       -4.338015808    13.802937112     7.874897825
 C       -5.200248517    12.875013046     8.642442840
 C       -4.624013077    15.215679451     8.181610943
 C       -6.638388375    12.749950254     8.106684631
 C       -6.817678956    11.492102482     7.231868727
 N       -7.884696777    11.619617426     6.224273779
 C       -9.177718957    11.901795461     6.695324890
 C       -9.610779142    11.348536813     7.920617189
 C      -10.882020068    11.615909129     8.400299776
 C      -11.786872075    12.396227202     7.665808953
 C      -11.367187832    12.916749205     6.438656112
 C      -10.090012927    12.673605431     5.950528874
 C       -7.444646381    12.317433509     5.005607958
 C      -13.118011963    12.647552217     8.220330747
 C      -14.062079552    13.376139116     7.610013979
Si      -15.736360806    13.711930027     8.271593687
 C      -15.941090594    15.536924695     8.454472857
 C      -14.822777132    16.377809902     8.504234681
 C      -14.981472568    17.754655859     8.642326358
 C      -16.258116023    18.322842026     8.742203821
 C      -17.372203371    17.479499827     8.697244992
 C      -17.217196963    16.101151062     8.555941233
 C      -16.373455039    19.770627626     8.885585490
 C      -17.534975898    20.438770865     8.987934474
 C      -17.651139067    21.886367679     9.131324841
 C      -16.539015288    22.731681396     9.176537892
 C      -16.696660826    24.110367994     9.314637094
 C      -17.973073163    24.676089061     9.402089397
 C      -19.089203401    23.831201114     9.356248064
 C      -18.928629006    22.453998130     9.225996432
Si      -18.187859434    26.500746224     9.585016387
 C      -16.732022812    27.399449563     8.831002938
 C      -19.750908844    27.047508496     8.717078451
 C      -18.302044215    26.898934077    11.407080185
 C      -16.984358732    13.047921248     7.049490505
 C      -15.992697369    12.915786835     9.941116396
 C       -2.789066557    13.691759105    -1.275733284
 C       -5.583077725    12.459372022    -1.219739915
 C       -0.630055928    -0.858452980    -1.535512786
 C       -0.601608270    -0.903996641     1.522168952
 H        1.061927148     2.602229094    -1.048740020
 H        0.186015565     4.867007090    -1.032703980
 H       -3.347347961     3.530234982     1.029789093
 H       -2.506957093     1.248943132     1.041959186
 H       -3.181381979     5.792946598     0.511363486
 H       -0.629186979     6.731079227    -0.970189543
 H       -3.997748117     7.627111704     0.580485276
 H       -4.897183446     9.881408817     0.610886382
 H       -1.346923645    11.283879721    -1.482916656
 H       -0.482070870     9.009004485    -1.482858731
 H       -4.517113943    14.039748392     1.448932795
 H       -3.346162999    11.279194051     2.326856317
 H       -3.123726734    10.886685122     4.583053532
 H       -3.326896868    11.568150943     6.947373819
 H       -5.053237207    15.322405022     5.694464446
 H       -4.732723860    14.687041123     3.352100664
 H       -4.474478474    15.378662258     9.263685919
 H       -5.642431090    15.541749032     7.919262060
 H       -3.895748331    15.859799033     7.657928628
 H       -6.427649906    11.982717007     4.725804378
 H       -7.418048568    13.414027059     5.109444844
 H       -8.110541520    12.046113628     4.167285024
 H       -8.946262204    10.711372375     8.496743298
 H      -11.187245773    11.196958256     9.359605767
 H      -12.051007602    13.526642445     5.845755178
 H       -9.804915557    13.099350756     4.993665991
 H      -13.273534470    12.176765024     9.200228269
 H      -13.878564694    13.832721439     6.623966546
 H      -13.801537344    15.988392949     8.434042896
 H      -14.100913810    18.393634741     8.674698590
 H      -18.375117170    17.895516792     8.772754813
 H      -18.125260160    15.492900405     8.525444418
 H      -15.419291674    20.305449203     8.906091668
 H      -18.488942256    19.903585428     8.967523897
 H      -15.534972110    22.317217390     9.105094543
 H      -15.788774790    24.719134986     9.346019166
 H      -20.110800458    24.216024614     9.419640956
 H      -19.808355452    21.813764143     9.194732257
 H       -4.696977764    11.882327776     8.661486267
 H       -5.214907805    13.221333494     9.700299877
 H       -7.361152375    12.728201738     8.943149554
 H       -6.907717012    13.652482693     7.524516186
 H       -5.869665349    11.247449543     6.698067755
 H       -7.037974023    10.605352228     7.867880568
 H        2.267566032    -1.027474832     0.076483563
 H        2.269592136     0.575499968     0.854329166
 H        2.279429300     0.444648576    -0.923573778
 H      -16.878917629    28.493744752     8.862874686
 H      -16.590720183    27.114457315     7.772717929
 H      -15.791872809    27.177505378     9.365515191
 H      -19.741554899    26.750364158     7.652675678
 H      -20.651834633    26.606565239     9.178145001
 H      -19.864946961    28.145515286     8.753886561
 H      -17.391023754    26.581687114    11.945855290
 H      -18.430002536    27.982577877    11.575458779
 H      -19.158150536    26.383550350    11.878421653
 H      -16.900673525    13.557017606     6.072276362
 H      -16.831814101    11.967409492     6.873887361
 H      -18.019016836    13.184200401     7.408711482
 H      -15.264938316    13.293192644    10.682483622
 H      -17.002465373    13.127679847    10.335817292
 H      -15.879391556    11.818498753     9.886019552
 H       -1.796868346    13.749700705    -0.791849912
 H       -2.633569770    13.405084963    -2.331132767
 H       -3.217282380    14.710132437    -1.269261180
 H       -6.281509358    11.779249422    -0.699574933
 H       -6.041926528    13.463598303    -1.229186274
 H       -5.507805554    12.116727278    -2.267893443
 H       -0.287142774    -0.346111593    -2.452438156
 H       -0.278595748    -1.903988711    -1.585319217
 H       -1.734507531    -0.875099140    -1.562526200
 H       -0.310835703    -0.370213591     2.445102492
 H       -1.700481613    -1.009288813     1.529604019
 H       -0.172687954    -1.920407367     1.578068495

