139   

Si        0.000000000     0.000000000     0.000000000
 C        1.869378999     0.000000000     0.000000000
 C       -0.645935742     1.729550694     0.000000000
 C        0.154082942     2.801064593     0.409251869
 C       -0.346109842     4.102985684     0.404490331
 C       -1.657374866     4.363132183    -0.002191518
 C       -2.459257430     3.287797238    -0.407394652
 C       -1.962104140     1.987232568    -0.405589504
 C       -2.223317259     5.708076300    -0.023596737
 C       -1.562697436     6.821450649     0.336881639
 C       -2.127989284     8.166755500     0.315739423
 C       -3.439756029     8.426873860    -0.091113995
 C       -3.939569712     9.728693548    -0.095761232
 C       -3.132171380    10.800043698     0.299336491
 C       -1.817059318    10.543738976     0.706876214
 C       -1.323799380     9.241551306     0.717510132
Si       -3.780395830    12.527637167     0.298098394
 C       -2.361964356    13.665629978     0.076056056
 C       -1.985404180    14.618538865     0.938890974
 C       -0.844282646    15.511357328     0.728119068
 C       -0.544384394    16.473403672     1.703011776
 C        0.524670125    17.341387184     1.550238892
 C        1.311027128    17.309411689     0.378283561
 C        1.009701774    16.344056792    -0.601084712
 C       -0.036156283    15.450307384    -0.410439746
 N        2.394669342    18.196312384     0.234604812
 C        2.256378039    19.527156967     0.853129697
 C        3.039043155    18.252762451    -1.088847472
 C        1.111369764    20.355152334     0.248297401
 C        0.992012466    21.711886945     0.960777231
 N       -0.006358311    22.602837914     0.342918823
 C        0.232791600    23.012416783    -0.981884324
 C        1.555980378    23.159136987    -1.451147203
 C        1.799201678    23.562069394    -2.754417913
 C        0.747623479    23.882709972    -3.624087008
 C       -0.561621973    23.767715929    -3.148216812
 C       -0.823467147    23.348082821    -1.850774692
 C       -1.389102254    22.225754577     0.683369013
 C        1.059862123    24.302988299    -4.991335260
 C        0.137152470    24.632041822    -5.904861756
Si        0.484106011    25.162399166    -7.623889748
 C       -0.203429437    26.858499371    -7.858216633
 C       -0.417084495    27.694066820    -6.755078807
 C       -0.935995132    28.974447041    -6.930923718
 C       -1.245593995    29.453079561    -8.210754583
 C       -1.026705643    28.617532507    -9.309884031
 C       -0.510796433    27.333679342    -9.137317067
 C       -1.787188231    30.801716805    -8.343684938
 C       -2.128065224    31.378010207    -9.508947456
 C       -2.669626958    32.726731134    -9.641216519
 C       -2.888715431    33.562636677    -8.542691156
 C       -3.408276794    34.845071373    -8.715210426
 C       -3.729101767    35.317816555    -9.992221577
 C       -3.511428885    34.481802625   -11.094502420
 C       -2.985325769    33.204144549   -10.920061031
Si       -4.417169484    37.015695387   -10.222455437
 C       -5.382794892    37.527281791    -8.705467467
 C       -2.993139567    38.194720598   -10.493437561
 C       -5.557291621    37.048150713   -11.703745505
 C        2.316702610    25.209659525    -7.977783572
 C       -0.358659614    23.960358864    -8.779774706
 C       -4.954476084    12.782051239    -1.132907616
 C       -4.668443018    12.830647689     1.912094905
 C       -0.604404552    -0.892799759    -1.527376020
 C       -0.629500104    -0.862961636     1.533122150
 H        1.187373105     2.660932119     0.738528954
 H        0.298709695     4.919660125     0.724630765
 H       -3.483774323     3.468158481    -0.727790946
 H       -2.634817150     1.189588154    -0.732681196
 H       -3.261390990     5.761949763    -0.364583695
 H       -0.524548026     6.767441320     0.678148977
 H       -4.085055028     7.609806719    -0.408094579
 H       -4.973262790     9.870155939    -0.422431629
 H       -1.141638103    11.345379838     1.024809515
 H       -0.299863031     9.060367615     1.039653527
 H       -1.814141520    13.504010035    -0.866775917
 H       -2.511496369    14.805020698     1.884318232
 H       -1.154037360    16.534852964     2.605060915
 H        0.749614712    18.049884091     2.342087432
 H        1.591448721    16.278819970    -1.515250182
 H       -0.235615290    14.700740309    -1.178562707
 H        3.877279145    18.969626397    -1.067542986
 H        2.352716347    18.546649872    -1.900212904
 H        3.472302269    17.263919416    -1.324762037
 H       -1.445641911    21.913130557     1.739613630
 H       -1.787088002    21.408820712     0.058882914
 H       -2.043336633    23.110164628     0.578248096
 H        2.396835346    22.950671897    -0.796235854
 H        2.829800725    23.644730641    -3.101235417
 H       -1.400532163    24.011867105    -3.802655570
 H       -1.856146171    23.273510511    -1.524635252
 H        2.137338736    24.325836643    -5.201150050
 H       -0.938120656    24.598207899    -5.665106852
 H       -0.190893141    27.373534868    -5.732427520
 H       -1.100072924    29.608810713    -6.061621790
 H       -1.259106073    28.965159330   -10.314727931
 H       -0.363414349    26.725519713   -10.033833767
 H       -1.905457470    31.341979456    -7.399607070
 H       -2.010012965    30.838501119   -10.453289000
 H       -2.652529193    33.216912122    -7.537796985
 H       -3.555096891    35.452451774    -7.817736921
 H       -3.743637163    34.796514809   -12.115644032
 H       -2.821527445    32.570243874   -11.789614537
 H        2.109904675    19.394304564     1.949250060
 H        3.225827116    20.064625607     0.744476273
 H        1.280062704    20.506939332    -0.835962613
 H        0.157240306    19.797838238     0.319782935
 H        0.717397962    21.567071390     2.030270469
 H        1.973554526    22.238755238     0.974060912
 H        2.267554144    -1.028391749    -0.065036007
 H        2.278846857     0.453773621     0.919602135
 H        2.270434112     0.565310403    -0.860584349
 H       -5.863581197    38.510952519    -8.851267956
 H       -4.735472402    37.605666155    -7.814550361
 H       -6.181226376    36.798703941    -8.475416969
 H       -2.300372441    38.192990677    -9.632617072
 H       -2.406329293    37.917790625   -11.387694250
 H       -3.348839151    39.230397035   -10.634388965
 H       -6.362802074    36.298102201   -11.604279693
 H       -6.036884516    38.036727188   -11.816715078
 H       -5.016869500    36.834748788   -12.642415910
 H        2.839000675    25.910803312    -7.301385696
 H        2.777579631    24.213890697    -7.852744135
 H        2.516731275    25.542393720    -9.012184902
 H       -1.455934995    23.979578535    -8.649575777
 H       -0.144349208    24.193661621    -9.837161528
 H       -0.021169993    22.924801662    -8.592433763
 H       -4.478628117    12.520539233    -2.095400634
 H       -5.862451644    12.162864897    -1.030045959
 H       -5.277459126    13.836934477    -1.199268515
 H       -3.991981507    12.693627452     2.775473135
 H       -5.076154293    13.855731371     1.962468394
 H       -5.512175459    12.129359196     2.042864021
 H       -0.298555756    -0.361745976    -2.447159301
 H       -0.192423303    -1.916048965    -1.582047438
 H       -1.704944423    -0.977825379    -1.543766027
 H       -0.283266402    -0.353949701     2.450856866
 H       -1.733744289    -0.877636906     1.562503727
 H       -0.279657982    -1.909170837     1.579063980

