139   

Si        0.000000000     0.000000000     0.000000000
 C        1.869149702     0.000000000     0.000000000
 C       -0.654519301     1.726186650     0.000000000
 C        0.190977919     2.830137137     0.143364909
 C       -0.326300956     4.125738632     0.140413325
 C       -1.698326582     4.346799027    -0.003619631
 C       -2.544887557     3.238758599    -0.145323605
 C       -2.031633120     1.944711023    -0.142871746
 C       -2.283988203     5.683494475    -0.012475890
 C       -1.585568442     6.824677810     0.113950574
 C       -2.169711016     8.162029247     0.105291938
 C       -3.542319234     8.384264680    -0.038756379
 C       -4.057922155     9.679930993    -0.041517840
 C       -3.207672782    10.782230235     0.092205743
 C       -1.831952790    10.563832852     0.235963020
 C       -1.321311544     9.268285774     0.245273889
Si       -3.879744230    12.499281587     0.089730624
 C       -2.546575198    13.629412439    -0.458471952
 C       -2.034497700    14.645571735     0.247250489
 C       -0.964793209    15.520512727    -0.242753260
 C       -0.507837144    16.555117071     0.588227953
 C        0.501375312    17.408644750     0.170113427
 C        1.072984292    17.244276339    -1.102089019
 C        0.628807583    16.212426988    -1.935125840
 C       -0.376586154    15.354917880    -1.498729600
 N        2.110559577    18.171116666    -1.453117086
 C        1.555921959    19.445038737    -1.960885626
 C        3.157067549    17.607468565    -2.324406688
 C        0.944779962    19.364922258    -3.374217404
 C       -0.080804108    20.487272129    -3.623194298
 N       -1.492499741    20.071925533    -3.492031035
 C       -1.893119258    19.672493662    -2.193452119
 C       -1.641767988    20.551367635    -1.119854717
 C       -2.015671451    20.203651016     0.167502187
 C       -2.699006934    19.005375071     0.423274481
 C       -2.977936627    18.154395176    -0.648617134
 C       -2.590531265    18.479998450    -1.943526388
 C       -1.929508159    19.205900577    -4.600637601
 C       -3.068506917    18.690845509     1.803865632
 C       -3.720621433    17.583350670     2.182209334
Si       -4.178485894    17.199328600     3.914298348
 C       -3.606327252    18.557590965     5.022641290
 C       -2.235005836    18.836293288     5.114265003
 C       -1.776597997    19.855867750     5.943106507
 C       -2.673662773    20.624915206     6.697535839
 C       -4.039271059    20.345918131     6.601946801
 C       -4.502038514    19.323284196     5.773125873
 C       -2.144014314    21.682809053     7.551911306
 C       -2.892028972    22.488594773     8.324531565
 C       -2.361663964    23.546394665     9.178750345
 C       -0.995995840    23.825089555     9.274072989
 C       -0.532706083    24.846411258    10.103996843
 C       -1.427636995    25.612916285    10.855903799
 C       -2.798475808    25.335815195    10.762102398
 C       -3.257647500    24.315215077     9.934381302
Si       -0.846995408    26.971177334    11.963309456
 C        1.004422498    27.190799999    11.831066643
 C       -1.692293825    28.560664861    11.460967733
 C       -1.294415839    26.536141197    13.724874198
 C       -6.029908554    16.975542588     4.005017166
 C       -3.325692192    15.614577874     4.420218559
 C       -5.290883522    12.651715191    -1.125347200
 C       -4.480662751    12.912551087     1.807515168
 C       -0.611305318    -0.881024004    -1.531040909
 C       -0.622872783    -0.871225893     1.531359613
 H        1.272731864     2.720979545     0.259915022
 H        0.354219607     4.968087472     0.252643449
 H       -3.617050138     3.388866129    -0.258495269
 H       -2.740869586     1.120058742    -0.256642374
 H       -3.371079434     5.705793092    -0.133081226
 H       -0.498336825     6.801875727     0.234868483
 H       -4.223033932     7.542169728    -0.149288472
 H       -5.139570824     9.791047250    -0.155887072
 H       -1.121251856    11.390421658     0.343738430
 H       -0.249382648     9.116914472     0.360542803
 H       -2.177656461    13.400705205    -1.472577728
 H       -2.376839054    14.902779822     1.258815417
 H       -0.957701861    16.700198014     1.572290424
 H        0.856893748    18.210052804     0.816658465
 H        1.065155846    16.071927578    -2.919342392
 H       -0.708571583    14.551805627    -2.157117136
 H        3.994929529    18.324642276    -2.368854132
 H        2.836194912    17.383868022    -3.352053519
 H        3.541933910    16.678472598    -1.868192092
 H       -1.671370924    19.687162959    -5.559382695
 H       -3.030444502    19.112807984    -4.574182103
 H       -1.487446149    18.197064035    -4.588034996
 H       -1.155053617    21.505589498    -1.304130725
 H       -1.791011115    20.883274374     0.990647071
 H       -3.499515463    17.210762877    -0.476299817
 H       -2.809071948    17.782242329    -2.745857358
 H       -2.757128218    19.468371512     2.517927813
 H       -4.032951399    16.823213828     1.449562236
 H       -1.488066365    18.269638924     4.548633893
 H       -0.708675805    20.057299206     6.004526396
 H       -4.757619123    20.928269101     7.176344000
 H       -5.581699392    19.153287227     5.738766480
 H       -1.055346104    21.787900765     7.527963562
 H       -3.980820117    22.383687570     8.349223666
 H       -0.278098157    23.243521904     8.698424205
 H        0.546921152    25.016526814    10.137099041
 H       -3.544533478    25.902173723    11.326804871
 H       -4.325824200    24.114248840     9.874730734
 H        0.786791375    19.789979491    -1.229271534
 H        2.375434716    20.196108495    -1.936664028
 H        1.745445739    19.410470627    -4.132725386
 H        0.460071882    18.378029844    -3.511839328
 H        0.097521022    21.343887833    -2.935433787
 H        0.050145440    20.900829434    -4.649374884
 H        2.266926848    -1.030334531    -0.028509767
 H        2.276252614     0.484942198     0.904983660
 H        2.272800865     0.533925443    -0.878898758
 H        1.355146123    28.012565148    12.480999934
 H        1.310071357    27.434359910    10.797832664
 H        1.544586994    26.276750799    12.135639255
 H       -1.458151284    28.823617274    10.413273573
 H       -2.790602537    28.480627423    11.542964956
 H       -1.371033810    29.405000069    12.096023476
 H       -0.814277449    25.590955317    14.037468268
 H       -0.970629709    27.323098687    14.428543564
 H       -2.384532784    26.407172977    13.846219898
 H       -6.562122236    17.887356488     3.677662925
 H       -6.368942644    16.148235435     3.356282983
 H       -6.359258057    16.745475933     5.033638238
 H       -2.227494306    15.698710374     4.333323009
 H       -3.554347464    15.361315974     5.471149333
 H       -3.646446410    14.762060315     3.795317713
 H       -4.986903320    12.329910988    -2.137701496
 H       -6.153768287    12.031893298    -0.826057648
 H       -5.642918824    13.696695957    -1.202072116
 H       -3.657824157    12.860455730     2.544038152
 H       -4.915546900    13.927445494     1.848761343
 H       -5.260329179    12.203400850     2.139326991
 H       -0.274663178    -0.366036822    -2.449232137
 H       -0.235298316    -1.918402119    -1.574430020
 H       -1.714124641    -0.924866741    -1.562888611
 H       -0.277199155    -0.362634774     2.449732792
 H       -1.726677432    -0.893409916     1.563354295
 H       -0.266103027    -1.915287135     1.574061707

