139   

Si        0.000000000     0.000000000     0.000000000
 C        1.868941082     0.000000000     0.000000000
 C       -0.660506295     1.723732733     0.000000000
 C        0.186085552     2.835717337    -0.022403622
 C       -0.339534036     4.128096197    -0.021868460
 C       -1.720625285     4.337607494    -0.001271184
 C       -2.568039033     3.221239057     0.020239129
 C       -2.046694550     1.930597029     0.021098304
 C       -2.316064545     5.669840295     0.000129004
 C       -1.620441447     6.819574804    -0.017805854
 C       -2.218577596     8.150797871    -0.016356899
 C       -1.374549566     9.269097178    -0.036451295
 C       -1.900069160    10.558999129    -0.035902796
 C       -3.285226296    10.759694538    -0.024910487
 C       -4.130597470     9.645017701    -0.006466474
 C       -3.601271935     8.355304861     0.000839221
Si       -3.998261984    12.459920503    -0.024017252
 C       -5.624072864    12.391717150    -0.869420530
 C       -6.802372363    12.719223376    -0.324833200
 C       -8.083150105    12.651052012    -1.035164583
 C       -9.250844621    13.022929602    -0.350197382
 C      -10.486960305    12.976818392    -0.975327144
 C      -10.577353549    12.562517525    -2.314078223
 C       -9.421287768    12.184599577    -3.003919579
 C       -8.187540364    12.221152990    -2.359928356
 N      -11.897713260    12.546522632    -2.877158835
 C      -12.282729703    13.872966168    -3.407892789
 C      -12.131999077    11.448268828    -3.831428938
 C      -11.611651906    14.256162513    -4.741860780
 C      -11.633160455    15.778529000    -4.977998611
 N      -10.363592980    16.470909011    -4.670880594
 C       -9.989924885    16.423103116    -3.299503596
 C      -10.852251886    17.036027598    -2.370011208
 C      -10.541441384    17.022010258    -1.019587015
 C       -9.362917169    16.419213857    -0.555999661
 C       -8.499101674    15.837357919    -1.487538707
 C       -8.793272986    15.850928425    -2.846127057
 C       -9.295880454    16.147694098    -5.633457298
 C       -9.078979360    16.430428497     0.881178610
 C       -7.985467671    15.885029225     1.429217625
Si       -7.574154143    15.866186818     3.213834317
 C       -5.968138401    16.748028062     3.421875120
 C       -5.556658765    17.698154646     2.479190448
 C       -4.344202941    18.365191887     2.634469959
 C       -3.515225117    18.099968443     3.732457015
 C       -3.929839423    17.151060088     4.671539498
 C       -5.143389423    16.481652442     4.519554405
 C       -2.254178454    18.824898218     3.851112376
 C       -1.371730872    18.665400241     4.851979878
 C       -0.110587010    19.389949702     4.971244807
 C        0.305448992    20.338921467     4.033333805
 C        1.519284312    21.008109693     4.186917104
 C        2.349928646    20.735535937     5.279042073
 C        1.935643150    19.783877111     6.219540019
 C        0.719347545    19.122835860     6.068089835
Si        3.958217275    21.618777696     5.487140334
 C        4.621297409    22.149929147     3.821951119
 C        3.667731965    23.120523501     6.560158909
 C        5.204359667    20.487925871     6.301547351
 C       -8.875183404    16.726267249     4.237999164
 C       -7.422006442    14.080453336     3.742753902
 C       -4.144422106    13.061267176     1.735443864
 C       -2.913126506    13.636116501    -0.988605642
 C       -0.617152998    -0.876668709    -1.530888385
 C       -0.614874880    -0.876709774     1.531937518
 H        1.274632316     2.735089110    -0.040354206
 H        0.342044776     4.976857728    -0.038162266
 H       -3.647233303     3.362516903     0.036649296
 H       -2.757211544     1.099317274     0.038786047
 H       -3.410111853     5.681085659     0.017727924
 H       -0.526743473     6.809019818    -0.035189204
 H       -0.295064907     9.131375229    -0.050594044
 H       -1.193029868    11.393133246    -0.048673261
 H       -5.221441423     9.743547694     0.000564644
 H       -4.279419140     7.503874261     0.017698025
 H       -5.556327163    12.048167863    -1.914909109
 H       -6.902328608    13.057965240     0.715373971
 H       -9.189273235    13.359182638     0.686122069
 H      -11.393206762    13.262320385    -0.442301898
 H       -9.479197267    11.856366267    -4.037380579
 H       -7.295950745    11.915510450    -2.907786681
 H      -13.210288271    11.412117496    -4.063276463
 H      -11.865686330    10.491940043    -3.347627895
 H      -11.574902616    11.526144481    -4.776320767
 H       -9.645443645    16.401739565    -6.648933777
 H       -8.979694903    15.092881285    -5.628547707
 H       -8.415838576    16.782469483    -5.425874988
 H      -11.758032899    17.526156897    -2.718594484
 H      -11.222074757    17.493414077    -0.310837981
 H       -7.573698586    15.359946846    -1.154503424
 H       -8.102680756    15.380070499    -3.539759382
 H       -9.855789893    16.930413074     1.473532753
 H       -7.222874034    15.392744219     0.800331358
 H       -6.162872123    17.943023851     1.600009244
 H       -4.039692040    19.100712059     1.891869860
 H       -3.303904590    16.926417981     5.533227906
 H       -5.413070588    15.749010799     5.285021928
 H       -2.058786089    19.537331170     3.044111855
 H       -1.567684318    17.953098455     5.659004452
 H       -0.319768060    20.565619785     3.171517984
 H        1.788862490    21.741356642     3.421631293
 H        2.542893944    19.529175786     7.092582771
 H        0.413953154    18.388189986     6.811026812
 H      -13.389190849    13.874557008    -3.518564449
 H      -12.039817704    14.632682631    -2.627124027
 H      -10.566156144    13.889493159    -4.747430448
 H      -12.113665495    13.738317704    -5.577652370
 H      -11.879069497    15.995514379    -6.042274531
 H      -12.441158162    16.257415167    -4.381083566
 H        2.266223225    -1.030664439     0.024774832
 H        2.274569289     0.530731047     0.879787708
 H        2.274554030     0.487878904    -0.904176497
 H        5.615645435    22.620996094     3.920244971
 H        3.957137900    22.882401516     3.330706830
 H        4.729308939    21.286724213     3.140478165
 H        2.933434197    23.806605240     6.100669676
 H        3.274640555    22.835943313     7.552723859
 H        4.601138190    23.688211038     6.720231414
 H        5.335136468    19.555263918     5.723248920
 H        6.193982741    20.972696174     6.377400256
 H        4.896028000    20.205897789     7.323351097
 H       -8.991956178    17.783155539     3.935999308
 H       -9.860369313    16.237598062     4.137143592
 H       -8.609809668    16.721465139     5.310452234
 H       -6.608796147    13.563336942     3.200827004
 H       -7.207990635    13.995223499     4.822320979
 H       -8.357813545    13.525904881     3.547014112
 H       -4.840783382    12.437993515     2.324069240
 H       -3.166390554    13.033733959     2.250257881
 H       -4.501479096    14.107599329     1.774934176
 H       -2.731082063    13.271303185    -2.014887373
 H       -3.381300880    14.634815389    -1.068764285
 H       -1.930331359    13.771441244    -0.503733022
 H       -0.272329661    -0.367656191    -2.449382819
 H       -0.254731805    -1.918857810    -1.571563294
 H       -1.720614681    -0.905084662    -1.564722640
 H       -0.269239471    -0.366519630     2.449542547
 H       -1.718205161    -0.906663286     1.567580578
 H       -0.251253446    -1.918472629     1.572540515

