139   

Si        0.000000000     0.000000000     0.000000000
 C        1.869562333     0.000000000     0.000000000
 C       -0.631934533     1.734743998     0.000000000
 C        0.066858033     2.746496591    -0.667937212
 C       -0.409663565     4.056965388    -0.668473812
 C       -1.598192888     4.385284734    -0.010154347
 C       -2.299292719     3.370066144     0.653547181
 C       -1.823950362     2.060966251     0.658540350
 C       -2.135784439     5.741607520     0.016632591
 C       -1.563899711     6.804598360    -0.574063154
 C       -2.105077904     8.159593696    -0.544769487
 C       -3.293962970     8.481264613     0.115260687
 C       -3.776062047     9.789858145     0.118579820
 C       -3.083834512    10.803881834    -0.550413884
 C       -1.892400720    10.484376102    -1.214731434
 C       -1.408193403     9.179143908    -1.207419139
Si       -3.707641243    12.540812508    -0.556150487
 C       -2.657883232    13.546508766     0.565185499
 C       -1.621679307    13.042246157     1.248447312
 C       -0.759016607    13.806331849     2.152282623
 C        0.289494084    13.131193341     2.797001646
 C        1.139981833    13.797864285     3.663567103
 C        0.930491795    15.160827957     3.949354021
 C       -0.116659756    15.839119787     3.311461467
 C       -0.935619820    15.168131079     2.407863996
 N        1.845209269    15.779377681     4.849173714
 C        1.796445633    15.234012274     6.222744285
 C        1.864408462    17.251847522     4.822804086
 C        0.558362546    15.664737303     7.033291626
 C        0.008034772    14.545222254     7.936298907
 N       -0.894276860    13.579627934     7.273051648
 C       -1.896023532    14.153713242     6.457439761
 C       -2.637655218    15.242010258     6.963473207
 C       -3.627533851    15.831216200     6.194206167
 C       -3.920163793    15.359930648     4.906821677
 C       -3.204416400    14.262281299     4.421956851
 C       -2.224667186    13.646464806     5.190009785
 C       -0.198173887    12.405835312     6.721222642
 C       -4.975164528    16.015669901     4.132550438
 C       -5.329680283    15.641862240     2.896656631
Si       -6.635240400    16.413945979     1.873810519
 C       -7.886140957    15.106200238     1.507717078
 C       -7.936683931    13.940082963     2.278788158
 C       -8.880152832    12.950883028     2.004685334
 C       -9.790374619    13.104036094     0.955270494
 C       -9.738264680    14.273789740     0.185491425
 C       -8.799291369    15.265353908     0.458593694
 C      -10.794384199    12.095662576     0.632178872
 C      -10.949782842    10.934108615     1.289926994
 C      -11.953390760     9.925084851     0.967706291
 C      -12.866677282    10.077632409    -0.079223569
 C      -13.809711110     9.087529498    -0.352446478
 C      -13.865214816     7.923438825     0.421574347
 C      -12.951229216     7.768286554     1.471394100
 C      -12.005845513     8.755775434     1.737739069
Si      -15.113309109     6.611332136     0.061193808
 C      -16.648460027     7.375048316    -0.683961378
 C      -14.360197216     5.399357275    -1.145027806
 C      -15.583675528     5.725347174     1.638911308
 C       -7.472382349    17.830240870     2.753093404
 C       -5.846739799    17.010707741     0.287806850
 C       -3.603846201    13.248561988    -2.281953383
 C       -5.479498885    12.598404795     0.024766335
 C       -0.633001364    -0.853783042    -1.536885484
 C       -0.604557859    -0.906201845     1.519486664
 H        1.000771602     2.550795828    -1.202037360
 H        0.154695304     4.826323164    -1.192553027
 H       -3.227561145     3.603806523     1.171965489
 H       -2.414115121     1.312343672     1.194243445
 H       -3.074033181     5.849909622     0.569250466
 H       -0.627122480     6.697278957    -1.128521742
 H       -3.855810417     7.708074683     0.636150104
 H       -4.708948973     9.981280330     0.657861534
 H       -1.308681113    11.236926082    -1.753313802
 H       -0.479715289     8.949787002    -1.726895746
 H       -2.936871691    14.608032605     0.637723869
 H       -1.332305127    11.981672437     1.182927719
 H        0.450535213    12.070692403     2.599509538
 H        1.981686062    13.278237322     4.116235408
 H       -0.306969822    16.887654749     3.521262963
 H       -1.739303902    15.717075109     1.914570599
 H        2.722333794    17.604828932     5.420887711
 H        0.951277484    17.728824522     5.211113002
 H        2.028343877    17.592399598     3.784797397
 H        0.513901040    12.013356672     7.465371789
 H        0.344821778    12.606307176     5.782159583
 H       -0.939856195    11.606833474     6.534585167
 H       -2.436705452    15.615726872     7.963449098
 H       -4.186797881    16.673623396     6.601188098
 H       -3.411133196    13.867824319     3.422739605
 H       -1.690008835    12.797868602     4.770048231
 H       -5.452792781    16.848004283     4.664367093
 H       -4.824243321    14.799618566     2.392548566
 H       -7.248686106    13.765466488     3.113808199
 H       -8.901613228    12.052835318     2.619750326
 H      -10.439165025    14.412094270    -0.635451710
 H       -8.806176151    16.156678350    -0.174211640
 H      -11.442190974    12.349168366    -0.212045592
 H      -10.302157908    10.681335786     2.134861759
 H      -12.847922809    10.976013350    -0.693718577
 H      -14.496142893     9.263840439    -1.185290404
 H      -12.947272287     6.880646668     2.110047646
 H      -11.302922170     8.615604800     2.556999959
 H        1.855325370    14.125275294     6.159823534
 H        2.726656841    15.560070389     6.739719632
 H        0.802348439    16.547770944     7.650873408
 H       -0.240172946    16.009978915     6.342702337
 H        0.842034606    13.989577233     8.416590155
 H       -0.571696873    15.000432634     8.775427519
 H        2.268800388    -1.027383039     0.071109017
 H        2.269411989     0.571633446     0.857135568
 H        2.279431369     0.450271273    -0.920918232
 H      -17.437977016     6.617550606    -0.835283414
 H      -16.441974096     7.836133898    -1.665619597
 H      -17.064013688     8.160256631    -0.026630943
 H      -14.072421751     5.897030906    -2.088644127
 H      -13.449496432     4.931452375    -0.729709263
 H      -15.067238881     4.589437494    -1.396395106
 H      -15.952192990     6.435350755     2.401408861
 H      -16.385197024     4.987147863     1.458401055
 H      -14.727335210     5.182067283     2.075135092
 H       -7.944802754    17.495693274     3.694956977
 H       -6.755133141    18.631702782     3.003950027
 H       -8.267164070    18.277510944     2.129869037
 H       -5.401012297    16.174945339    -0.281441841
 H       -6.582563773    17.505286315    -0.369241740
 H       -5.041297086    17.738839154     0.493429061
 H       -2.561881613    13.289951820    -2.645025367
 H       -4.179834177    12.633843203    -2.997278988
 H       -4.009703968    14.274628672    -2.323277251
 H       -5.569493834    12.430498390     1.113466838
 H       -5.948894679    13.574792404    -0.194862530
 H       -6.093837976    11.831949360    -0.482570323
 H       -0.287625092    -0.341763120    -2.453013239
 H       -0.286317622    -1.900796053    -1.587992927
 H       -1.737575462    -0.865373317    -1.563950846
 H       -0.315785145    -0.374336930     2.444062584
 H       -1.703538758    -1.011475550     1.523785841
 H       -0.176073458    -1.922848777     1.574320843

