139   

Si        0.000000000     0.000000000     0.000000000
 C        1.869728042     0.000000000     0.000000000
 C       -0.633361386     1.733430985     0.000000000
 C        0.062032269     2.750460253     0.663049479
 C       -0.420983081     4.058657812     0.659926333
 C       -1.617792982     4.376615196     0.012091748
 C       -2.315556600     3.356005422    -0.646626964
 C       -1.828520749     2.051624997    -0.656789690
 C       -2.163989383     5.728859459    -0.019262499
 C       -1.591959845     6.798953218     0.557949046
 C       -2.143736189     8.149362132     0.522847942
 C       -3.341625719     8.456650517    -0.127969826
 C       -3.833638575     9.761359026    -0.137250632
 C       -3.136457073    10.788054693     0.507579159
 C       -1.932507769    10.484693747     1.155585860
 C       -1.440118817     9.182201928     1.156391567
Si       -3.777219470    12.518157502     0.502290163
 C       -2.903762464    13.396767686    -0.845858904
 C       -2.129019500    14.478688332    -0.694900547
 C       -1.445586012    15.154678960    -1.800824259
 C       -0.657800193    16.282386233    -1.524614032
 C        0.008029586    16.955397586    -2.537819093
 C       -0.098476277    16.506556735    -3.866770796
 C       -0.873019465    15.372896106    -4.145635163
 C       -1.527315187    14.701568927    -3.119766082
 N        0.607031274    17.236662525    -4.866111618
 C        0.126575440    18.624630165    -5.064011333
 C        0.831947566    16.503644082    -6.122994246
 C       -1.389741755    18.853409901    -4.903882183
 C       -2.104163250    19.362083737    -6.168320262
 N       -2.419423953    18.345483069    -7.194124766
 C       -2.915556232    17.113762293    -6.727064563
 C       -3.912239133    17.124209243    -5.725602068
 C       -4.427169268    15.935664385    -5.238561038
 C       -3.988869027    14.698079667    -5.734670732
 C       -3.029873983    14.692183675    -6.749572157
 C       -2.515211954    15.877497051    -7.263191812
 C       -1.455913289    18.311302610    -8.303690670
 C       -4.567493910    13.471413976    -5.183436579
 C       -4.225385017    12.238903630    -5.580331078
Si       -4.919112693    10.676336550    -4.922774258
 C       -3.503843936     9.727987157    -4.216696229
 C       -2.526588046    10.416460549    -3.484619972
 C       -1.444980906     9.733874239    -2.937327534
 C       -1.316708405     8.348161841    -3.102733028
 C       -2.293927014     7.664707580    -3.830736131
 C       -3.378105955     8.346936519    -4.383635770
 C       -0.164688054     7.678979055    -2.509601823
 C        0.082860855     6.361026154    -2.593189663
 C        1.238843517     5.701279523    -1.995908686
 C        2.208688701     6.398833843    -1.269937385
 C        3.299066609     5.731549815    -0.714638081
 C        3.455658328     4.352698290    -0.893101192
 C        2.489945609     3.653254564    -1.626522791
 C        1.393563331     4.320040617    -2.168051307
Si        4.902390874     3.478527598    -0.154067619
 C        6.395062268     4.603467459    -0.144854256
 C        4.450845156     3.001927500     1.597322412
 C        5.302029180     1.942244629    -1.142112131
 C       -6.168672298    10.985298508    -3.570500520
 C       -5.720254517     9.744986652    -6.328757390
 C       -5.611093185    12.551094436     0.142904946
 C       -3.471425613    13.312451872     2.165065008
 C       -0.596793446    -0.901195420    -1.526107741
 C       -0.631958341    -0.857037162     1.535307986
 H        1.003487945     2.565232648     1.187914299
 H        0.149825877     4.835784865     1.166401631
 H       -3.247790275     3.583278736    -1.159844666
 H       -2.413108975     1.300151314    -1.193332195
 H       -3.106738701     5.829109127    -0.565286112
 H       -0.645811553     6.702362115     1.098423331
 H       -3.899628780     7.676628183    -0.643045922
 H       -4.771632514     9.939077857    -0.670788615
 H       -1.341672942    11.248045877     1.669036996
 H       -0.499278321     8.965264498     1.658365223
 H       -3.071289022    12.952094245    -1.841650227
 H       -1.943356082    14.946951890     0.279562908
 H       -0.566497167    16.639435611    -0.499541289
 H        0.621205769    17.824836011    -2.313532558
 H       -0.986899914    15.015569074    -5.167555670
 H       -2.128731579    13.823522850    -3.365834188
 H        1.553169304    17.066351344    -6.739010234
 H       -0.080194565    16.322065430    -6.712819887
 H        1.298392359    15.528148638    -5.892044856
 H       -1.317237032    19.335077719    -8.693754224
 H       -1.871598235    17.713452400    -9.135162658
 H       -0.469241974    17.906549863    -8.030138713
 H       -4.278937114    18.070984837    -5.337922453
 H       -5.186874100    15.965180449    -4.456109632
 H       -2.681012599    13.744036184    -7.163497426
 H       -1.791916098    15.829029716    -8.070520809
 H       -5.316630290    13.659208649    -4.402997748
 H       -3.468518280    12.083270992    -6.366330049
 H       -2.572458394    11.499144654    -3.327273247
 H       -0.696512882    10.284036913    -2.367749997
 H       -2.215436510     6.588389878    -3.971501166
 H       -4.109277366     7.760970369    -4.944957171
 H        0.515273564     8.340874123    -1.964323510
 H       -0.599784151     5.695282951    -3.128294319
 H        2.114521890     7.473938762    -1.126489863
 H        4.018940183     6.329566951    -0.149846076
 H        2.559035239     2.576072830    -1.799911122
 H        0.645730646     3.756018707    -2.723434892
 H        0.670206660    19.239172185    -4.305983525
 H        0.471742651    18.988691410    -6.054168990
 H       -1.884559434    17.925703223    -4.544621341
 H       -1.560558898    19.580564190    -4.085984340
 H       -3.079849838    19.821845138    -5.872583839
 H       -1.515883901    20.180689765    -6.636600769
 H        2.268735128    -1.029576060    -0.006624680
 H        2.279212648     0.506591221     0.891760969
 H        2.266487032     0.516548236    -0.892626401
 H        7.292556484     4.075336113     0.222457807
 H        6.241919149     5.483777783     0.503270640
 H        6.621220956     4.974395320    -1.161149343
 H        4.201950243     3.891772293     2.202792522
 H        3.572171934     2.332457533     1.618457229
 H        5.283176006     2.478409909     2.098535879
 H        5.470887451     2.185478562    -2.206725877
 H        6.216847635     1.452072175    -0.765269517
 H        4.486324904     1.199303524    -1.094249018
 H       -5.738960653    11.606350967    -2.763162274
 H       -7.060338699    11.507686776    -3.959215990
 H       -6.509453416    10.037527113    -3.116931823
 H       -4.985685931     9.482488648    -7.111097443
 H       -6.187808810     8.807530938    -5.980919228
 H       -6.510123976    10.350199214    -6.809412470
 H       -5.846491748    12.138766886    -0.854495232
 H       -6.172061468    11.961202840     0.889632153
 H       -6.002035909    13.583918323     0.173553738
 H       -2.393852336    13.380441228     2.396323439
 H       -3.885588541    14.335485152     2.204059957
 H       -3.947001398    12.731438808     2.975981232
 H       -0.311667894    -0.362734568    -2.447774326
 H       -0.163680664    -1.915180288    -1.586285585
 H       -1.694942571    -1.013196244    -1.531371840
 H       -0.289116164    -0.345213784     2.452507408
 H       -1.736400643    -0.870519150     1.561509374
 H       -0.284526023    -1.903477217     1.586039810

