139   

Si        0.000000000     0.000000000     0.000000000
 C        1.869481997     0.000000000     0.000000000
 C       -0.611667384     1.742185494     0.000000000
 C        0.009214181     2.701919035     0.808150175
 C       -0.442256451     4.020735314     0.817899591
 C       -1.528673516     4.409901288     0.028765612
 C       -2.151527465     3.447244267    -0.775604372
 C       -1.699780736     2.129416824    -0.790589397
 C       -2.035204533     5.778397862     0.007263700
 C       -1.526081022     6.793128438     0.726429985
 C       -2.032119495     8.161765435     0.705378310
 C       -1.404547253     9.124267052     1.507721651
 C       -1.851630836    10.443138640     1.521132416
 C       -2.945936445    10.827258140     0.737080867
 C       -3.575864641     9.868816465    -0.063863468
 C       -3.120281101     8.551092212    -0.080610348
Si       -3.548154181    12.570775041     0.745668961
 C       -5.310354306    12.560218463     0.241507738
 C       -5.817295649    13.191854365    -0.824798124
 C       -7.233624451    13.161546157    -1.198327943
 C       -7.644892492    13.865272243    -2.341073811
 C       -8.971864181    13.868474479    -2.736904465
 C       -9.929554551    13.132885588    -2.009372050
 C       -9.524392581    12.431987333    -0.864280977
 C       -8.194123631    12.467454893    -0.459011301
 N      -11.269660663    13.180847029    -2.470535836
 C      -11.483373438    12.629074939    -3.823749322
 C      -12.300880141    12.785095342    -1.499671150
 C      -11.757101794    11.117444898    -3.912475650
 C      -10.575938000    10.223292452    -3.491842486
 N       -9.488597529    10.100506100    -4.475033392
 C       -9.821256271     9.740313703    -5.785500665
 C      -10.893320275     8.848480595    -6.015264739
 C      -11.235267710     8.482018708    -7.306080335
 C      -10.504420555     8.942471912    -8.410927697
 C       -9.425364744     9.800407068    -8.179241939
 C       -9.077619560    10.192640584    -6.893852326
 C       -8.379544214    11.043495799    -4.284594360
 C      -10.909408397     8.524006783    -9.753505100
 C      -10.287398488     8.900437958   -10.878772641
Si      -10.762845493     8.399155207   -12.574791607
 C       -9.338273337     7.506192138   -13.335797512
 C       -8.391828478     6.867810287   -12.524694620
 C       -7.315481304     6.192969582   -13.095151993
 C       -7.163107425     6.132780014   -14.486662118
 C       -8.112472684     6.767297429   -15.292956098
 C       -9.189773531     7.446718539   -14.725242010
 C       -6.018625548     5.413707125   -15.037100449
 C       -5.755434598     5.284029588   -16.348504064
 C       -4.611020486     4.564999496   -16.898917092
 C       -3.660924377     3.930063312   -16.094316748
 C       -2.582131617     3.253773256   -16.663320060
 C       -2.424276614     3.205626018   -18.052329740
 C       -3.374570392     3.842099653   -18.861045463
 C       -4.455319043     4.509613031   -18.290350070
Si       -0.999270048     2.312711176   -18.814606436
 C        0.426009873     2.218536924   -17.608518265
 C       -1.560431909     0.588073184   -19.264216544
 C       -0.433123650     3.217189926   -20.349825206
 C      -12.242430129     7.260168506   -12.571818343
 C      -11.150720225     9.946082895   -13.548991913
 C       -3.444197075    13.287407502     2.467329025
 C       -2.497507923    13.571641117    -0.428234554
 C       -0.609498272    -0.908673161    -1.515351954
 C       -0.637394142    -0.847089792     1.538752106
 H        0.861341374     2.457487805     1.448684750
 H        0.061406641     4.748869647     1.451380294
 H       -2.998858693     3.728602389    -1.398599787
 H       -2.224193461     1.423726913    -1.440672751
 H       -2.890124007     5.939292752    -0.656435902
 H       -0.671147581     6.632035618     1.389764216
 H       -0.555950119     8.840893577     2.127647321
 H       -1.321383289    11.150828281     2.164031496
 H       -4.435711964    10.114149148    -0.696524798
 H       -3.625091976     7.823673535    -0.714238174
 H       -5.954960416    11.969986621     0.913660896
 H       -5.201494400    13.788174993    -1.510829075
 H       -6.912882154    14.430116610    -2.919450326
 H       -9.286440924    14.450187132    -3.601494489
 H      -10.242262799    11.864428045    -0.279447745
 H       -7.902340665    11.927040940     0.443063874
 H      -13.295363033    13.011596763    -1.922347574
 H      -12.188263252    13.398197038    -0.587059090
 H      -12.277069805    11.721906449    -1.214283201
 H       -8.184472264    11.188420747    -3.205432229
 H       -8.560590967    12.034592867    -4.731638158
 H       -7.457450049    10.614606478    -4.718494139
 H      -11.453882449     8.443291650    -5.178404419
 H      -12.079547052     7.809550253    -7.461503516
 H       -8.838923427    10.172878695    -9.021202793
 H       -8.235795844    10.864167909    -6.760014471
 H      -11.784109451     7.859952355    -9.753817558
 H       -9.411460803     9.568474933   -10.847624313
 H       -8.461911912     6.881344259   -11.431577299
 H       -6.586645633     5.706372988   -12.449357808
 H       -8.017040648     6.735575708   -16.376657092
 H       -9.898795751     7.925177577   -15.406060792
 H       -5.357360667     4.965787988   -14.289246321
 H       -6.416535841     5.731460770   -17.096514616
 H       -3.757330739     3.957452497   -15.010266687
 H       -1.873562834     2.774663821   -15.981966344
 H       -3.303262144     3.838064326   -19.952208073
 H       -5.184586544     4.995735299   -18.935822471
 H      -12.354882698    13.181063265    -4.252417235
 H      -10.611619867    12.886581313    -4.466021801
 H      -12.640869730    10.857143716    -3.300333124
 H      -12.049467076    10.878600917    -4.957424617
 H      -10.148147111    10.583832421    -2.528294166
 H      -10.950921152     9.191634908    -3.283831056
 H        2.269783130    -1.028257399    -0.047349107
 H        2.279387424     0.473402871     0.909194609
 H        2.268316940     0.552300102    -0.870400016
 H        1.310441453     1.746682239   -18.072528348
 H        0.167649299     1.624906446   -16.714176552
 H        0.728413017     3.224926467   -17.266515101
 H       -1.901343214     0.031383763   -18.372670623
 H       -2.403158361     0.612056436   -19.978174218
 H       -0.744685204     0.007227654   -19.729165442
 H       -0.161671624     4.263403140   -20.119048071
 H        0.455141602     2.734024544   -20.794034886
 H       -1.218624503     3.240435497   -21.125104571
 H      -12.038669405     6.338260820   -11.997004381
 H      -13.126560948     7.747855838   -12.124592707
 H      -12.513859041     6.953243771   -13.597802401
 H      -10.264723228    10.601119237   -13.632569638
 H      -11.488712495     9.709320248   -14.572599643
 H      -11.951003044    10.531971045   -13.061547364
 H       -3.996121119    12.666526398     3.196194432
 H       -2.399151827    13.360809784     2.815748283
 H       -3.878007162    14.303512790     2.502540606
 H       -2.545190524    13.167384859    -1.455896382
 H       -2.824139033    14.626104943    -0.464971900
 H       -1.435546439    13.562437986    -0.122479495
 H       -0.306621274    -0.390540499    -2.443189659
 H       -0.197366640    -1.932723663    -1.559043943
 H       -1.710185092    -0.996694953    -1.524030030
 H       -0.290672236    -0.334599719     2.453945492
 H       -1.742099509    -0.854290547     1.564796628
 H       -0.295422961    -1.895579466     1.592329373

