139   

Si        0.000000000     0.000000000     0.000000000
 C        1.869302601     0.000000000     0.000000000
 C       -0.628013973     1.736094190     0.000000000
 C        0.015401595     2.717324868    -0.763043098
 C       -0.451491053     4.030908182    -0.769373288
 C       -1.575942244     4.393118768    -0.021925853
 C       -2.221703040     3.408646260     0.736983884
 C       -1.755136599     2.096115278     0.748143654
 C       -2.100399230     5.754757368     0.001973287
 C       -1.574406879     6.789336478    -0.675464500
 C       -2.099500327     8.150793951    -0.651037160
 C       -3.224209230     8.511105688     0.097121156
 C       -3.692702050     9.824257705     0.092112392
 C       -3.039059264    10.807827213    -0.657633764
 C       -1.912113637    10.451310132    -1.408035532
 C       -1.451325125     9.136925160    -1.406102822
Si       -3.657635606    12.545256420    -0.665215641
 C       -2.287361847    13.648258288    -1.180912695
 C       -2.300354298    14.449683869    -2.253723167
 C       -1.187840072    15.321043421    -2.640344924
 C       -1.321357273    16.116880196    -3.789157992
 C       -0.299293747    16.957306474    -4.197324172
 C        0.884920587    17.053046779    -3.438301020
 C        1.024019528    16.257058840    -2.292292003
 C        0.004336789    15.388380592    -1.916490794
 N        1.896056572    17.932311026    -3.909204139
 C        1.479622467    19.351730264    -3.973411853
 C        3.225659709    17.764084657    -3.296588816
 C        1.029951351    19.947625406    -2.627323113
 C       -0.502960322    19.903403831    -2.462284796
 N       -0.944691014    19.880032466    -1.056756890
 C       -0.520021778    20.944648631    -0.241744945
 C       -0.437109078    22.245401808    -0.785537716
 C       -0.021454436    23.307939201    -0.001024225
 C        0.281017955    23.132629136     1.357732359
 C        0.168567448    21.850620168     1.901215919
 C       -0.231648749    20.770313657     1.124829517
 C       -0.914737060    18.530949527    -0.469315351
 C        0.715542993    24.292156023     2.137368199
 C        1.032339022    24.255269745     3.438594848
Si        1.577020702    25.702177089     4.421335186
 C        1.622101297    27.206179216     3.352878785
 C        2.803988542    27.921445266     3.133240082
 C        2.803966919    29.053528284     2.320557084
 C        1.625710076    29.495052102     1.705838937
 C        0.445910793    28.777309575     1.925904064
 C        0.442102568    27.646287624     2.739768776
 C        1.675464023    30.685800337     0.863621644
 C        0.618692376    31.212047427     0.221582871
 C        0.666132672    32.402516919    -0.621013053
 C        1.842878934    33.122861050    -0.843709120
 C        1.842087319    34.255716473    -1.657016384
 C        0.663825473    34.688524356    -2.274315007
 C       -0.516630492    33.967596122    -2.053694786
 C       -0.514635575    32.841330413    -1.234663807
Si        0.655824238    36.187552473    -3.352317234
 C        2.352021765    36.459646987    -4.090002172
 C       -0.577547179    35.964421105    -4.739573565
 C        0.176433909    37.660928714    -2.308126474
 C        0.364518233    25.986999226     5.814257659
 C        3.267507313    25.332311338     5.126737353
 C       -5.108658557    12.655177358    -1.834155429
 C       -4.183166430    13.051438009     1.054638927
 C       -0.633429034    -0.851011547    -1.538396618
 C       -0.605268281    -0.910973356     1.516212696
 H        0.897531270     2.494548911    -1.369883505
 H        0.069726884     4.776328912    -1.367568562
 H       -3.099274501     3.668688201     1.326188567
 H       -2.299578730     1.372477567     1.360989270
 H       -2.985687785     5.892458829     0.629957815
 H       -0.689619029     6.651712485    -1.304101556
 H       -3.746545758     7.763767078     0.691650620
 H       -4.577902623    10.045386596     0.694706814
 H       -1.363809503    11.180425717    -2.013827186
 H       -0.575481363     8.876780301    -1.998013643
 H       -1.411998214    13.604785699    -0.512296808
 H       -3.158084412    14.515099161    -2.936112436
 H       -2.237850542    16.065111994    -4.377721226
 H       -0.399138991    17.537462673    -5.112427212
 H        1.925232611    16.307196524    -1.688129691
 H        0.141725592    14.763418375    -1.032495701
 H        3.959771619    18.345099804    -3.882625970
 H        3.529274351    16.704527922    -3.363560956
 H        3.287712390    18.086981919    -2.245629335
 H       -1.306016039    17.795581556    -1.197287038
 H       -1.586197645    18.498885233     0.407128691
 H        0.092547453    18.201193783    -0.168957697
 H       -0.697084346    22.419017850    -1.825735037
 H        0.057697116    24.300689120    -0.446540684
 H        0.397263518    21.686617576     2.955080323
 H       -0.303120153    19.791003025     1.586975370
 H        0.763535731    25.216392744     1.542251046
 H        0.981054829    23.317630370     4.012478911
 H        3.754342514    27.622788079     3.583737800
 H        3.733121051    29.597911238     2.163048993
 H       -0.483824269    29.099579412     1.460358015
 H       -0.512185613    27.127104951     2.876349933
 H        2.664039715    31.146830486     0.780477892
 H       -0.370004670    30.751040176     0.305521549
 H        2.774465675    32.803937943    -0.379481382
 H        2.793158839    34.778624635    -1.790977164
 H       -1.467229452    34.258025854    -2.509561558
 H       -1.442752666    32.295922398    -1.073429876
 H        2.334704805    19.935670618    -4.383199073
 H        0.670078991    19.436187556    -4.732440863
 H        1.512991247    19.407219841    -1.790617498
 H        1.384432142    20.991132917    -2.531445788
 H       -0.972586151    20.779426176    -2.963734784
 H       -0.926903296    19.006729794    -2.971248817
 H        2.268815157    -1.027439198     0.068039196
 H        2.268860491     0.569506432     0.858870249
 H        2.279130280     0.454142399    -0.919044488
 H        2.345077757    37.299438326    -4.807532937
 H        2.700500880    35.562599859    -4.633155603
 H        3.102983507    36.694493099    -3.315464149
 H       -0.363911273    35.048581222    -5.320024066
 H       -1.611332651    35.884800192    -4.360502056
 H       -0.548036697    36.816683248    -5.441503028
 H        0.889988864    37.815029847    -1.478596586
 H        0.154288864    38.588518056    -2.906639289
 H       -0.824597030    37.527892444    -1.859861594
 H       -0.654192221    26.175748038     5.430022466
 H        0.308945598    25.113085255     6.486764355
 H        0.655858250    26.861180393     6.423945307
 H        4.004622020    25.143366528     4.325229735
 H        3.642127345    26.170837166     5.739854909
 H        3.245306267    24.434992694     5.770582547
 H       -4.820292517    12.367765499    -2.861941017
 H       -5.925949036    11.979506126    -1.523315435
 H       -5.520128894    13.679440575    -1.873090024
 H       -3.363113850    12.916297909     1.782946642
 H       -4.480630997    14.115548598     1.083680500
 H       -5.043402196    12.456580345     1.408267690
 H       -0.290608941    -0.336162717    -2.453791428
 H       -0.284782413    -1.897252482    -1.592558837
 H       -1.738054249    -0.864993278    -1.563501985
 H       -0.309586624    -0.387351866     2.443267810
 H       -1.704947548    -1.009445771     1.522898950
 H       -0.183369263    -1.930864329     1.563111184

