139   

Si        0.000000000     0.000000000     0.000000000
 C        1.869398488     0.000000000     0.000000000
 C       -0.633534389     1.734306974     0.000000000
 C        0.079737104     2.750257977    -0.645703432
 C       -0.396075586     4.060903871    -0.647466115
 C       -1.597836713     4.385608311    -0.011904300
 C       -2.313267685     3.366322365     0.629850136
 C       -1.838973799     2.056780682     0.635631867
 C       -2.133970710     5.742629591     0.011786913
 C       -1.546306212     6.806727120    -0.561149614
 C       -2.082335212     8.163653446    -0.537499656
 C       -1.363836624     9.182649809    -1.177538627
 C       -1.835704804    10.492643163    -1.181475981
 C       -3.038513938    10.814370306    -0.540627984
 C       -3.756802659     9.800104938     0.100460520
 C       -3.282048017     8.489033115     0.101126039
Si       -3.664253575    12.549018515    -0.545305530
 C       -5.453584332    12.492330049    -0.148526916
 C       -6.028937263    13.089477520     0.902605414
 C       -7.463305950    13.030121913     1.199792038
 C       -7.941033328    13.701010834     2.335304850
 C       -9.288819328    13.676412501     2.661338655
 C      -10.186120135    12.943262499     1.868691192
 C       -9.714053724    12.243937884     0.753195558
 C       -8.359792413    12.278305323     0.435201443
 N      -11.560808932    12.975144944     2.281488117
 C      -12.267961369    14.166035281     1.756497439
 C      -12.289026233    11.717027807     2.036872700
 C      -12.559630254    14.134034376     0.243771655
 C      -12.284424506    15.471100850    -0.469021999
 N      -10.875386221    15.739609286    -0.814070097
 C      -10.188514741    14.767266552    -1.561291791
 C      -10.887976238    13.872445225    -2.399217096
 C      -10.203203366    12.916214732    -3.133009249
 C       -8.803974773    12.850238026    -3.115253409
 C       -8.109033261    13.768673670    -2.322105069
 C       -8.779320543    14.722573967    -1.570118392
 C      -10.116105016    16.381829137     0.273574232
 C       -8.134328802    11.820053728    -3.909240140
 C       -6.805790434    11.659318803    -3.971207815
Si       -5.953750869    10.374597826    -4.960515057
 C       -7.199733108     9.346154747    -5.849997589
 C       -7.369823694     7.987853787    -5.561141690
 C       -8.318441710     7.232896501    -6.247787310
 C       -9.123131540     7.817228489    -7.233833459
 C       -8.953633300     9.175810639    -7.518335532
 C       -8.003793369     9.932872560    -6.835043800
 C      -10.102391681     6.985114609    -7.925270064
 C      -10.931168774     7.420151433    -8.889585320
 C      -11.910470116     6.588294809    -9.581148277
 C      -12.080632571     5.229863261    -9.297353138
 C      -13.028704880     4.472078963    -9.982684957
 C      -13.833144774     5.058161301   -10.967126388
 C      -13.664607066     6.417757859   -11.253190566
 C      -12.713161745     7.171746873   -10.569469184
Si      -15.082551311     4.035848560   -11.862521619
 C      -16.033605743     3.002454862   -10.628622064
 C      -16.279861503     5.127436736   -12.794995026
 C      -14.183046302     2.924415478   -13.065689356
 C       -4.833596703    11.207111314    -6.203646083
 C       -4.928592968     9.330658180    -3.799593132
 C       -2.711714543    13.530931385     0.725258572
 C       -3.452770615    13.325655968    -2.230196929
 C       -0.632831642    -0.854224283    -1.536640822
 C       -0.604658650    -0.904159373     1.520556656
 H        1.024964950     2.558374296    -1.161177952
 H        0.180396341     4.833588695    -1.153208829
 H       -3.251588681     3.597139525     1.131215580
 H       -2.439984682     1.304788066     1.154277853
 H       -3.082969531     5.850155006     0.545737645
 H       -0.597172492     6.698925581    -1.094346268
 H       -0.426958892     8.949509105    -1.679892975
 H       -1.234698828    11.244822269    -1.699559880
 H       -4.703977353     9.995014277     0.615656218
 H       -3.858919456     7.716340986     0.606452168
 H       -6.049395869    11.904674383    -0.868968070
 H       -5.462394436    13.681353641     1.633493451
 H       -7.249429544    14.259141813     2.965535127
 H       -9.659838531    14.200342326     3.540665102
 H      -10.395046545    11.669339827     0.130074966
 H       -8.008508990    11.725445579    -0.439692795
 H      -13.254086229    11.765383837     2.570156816
 H      -11.714384744    10.879109619     2.469343896
 H      -12.488337664    11.492475135     0.978399590
 H      -10.766741297    17.053539596     0.855212574
 H       -9.320315458    17.010033774    -0.167505898
 H       -9.651478629    15.656978468     0.966638574
 H      -11.969514303    13.922575558    -2.476732970
 H      -10.768462799    12.215097967    -3.748981691
 H       -7.017674308    13.748998089    -2.293659676
 H       -8.198288951    15.416895192    -0.970627201
 H       -8.835830467    11.173882940    -4.456598216
 H       -6.125460109    12.321899341    -3.414604325
 H       -6.772620905     7.477679487    -4.799671151
 H       -8.433608740     6.176757742    -6.011317925
 H       -9.565793021     9.654186324    -8.280664331
 H       -7.916511687    10.991039872    -7.101037784
 H      -10.125123619     5.940534705    -7.600710275
 H      -10.907300882     8.464434913    -9.214871974
 H      -11.469084588     4.751054659    -8.534506993
 H      -13.114575104     3.414634048    -9.717006687
 H      -14.264072828     6.929258390   -12.011135360
 H      -12.596343983     8.227383462   -10.807894026
 H      -13.217722126    14.257240507     2.329051942
 H      -11.661547745    15.059553972     2.022618385
 H      -11.956116378    13.333990098    -0.233879336
 H      -13.611907001    13.841998380     0.073325800
 H      -12.863967379    15.507378721    -1.423832755
 H      -12.668187880    16.318570688     0.140916490
 H        2.268249887    -1.026909357     0.080582500
 H        2.269374583     0.579225615     0.852058209
 H        2.279484299     0.441503933    -0.925073039
 H      -16.835085421     2.425395888   -11.122653245
 H      -16.507336144     3.636871985    -9.857493667
 H      -15.378582291     2.282126046   -10.108039242
 H      -16.777749594     5.847145233   -12.120675777
 H      -15.772088108     5.705018871   -13.587525765
 H      -17.070598814     4.527757231   -13.280180527
 H      -13.463782528     2.266127035   -12.546438035
 H      -14.886006849     2.279637741   -13.621554761
 H      -13.613134224     3.513996319   -13.806596451
 H       -5.398314252    11.885576425    -6.867218442
 H       -4.049752289    11.804229662    -5.705894945
 H       -4.329007089    10.461419816    -6.844054211
 H       -5.543537310     8.895555683    -2.990661358
 H       -4.432859910     8.498493547    -4.329719166
 H       -4.132163484     9.924741328    -3.313459882
 H       -2.820058841    13.094736468     1.735150354
 H       -1.631959271    13.548357608     0.492858774
 H       -3.058426988    14.578274152     0.772383319
 H       -3.843067767    12.675580900    -3.033228042
 H       -3.985763616    14.291907544    -2.295484044
 H       -2.388834726    13.519127548    -2.453032247
 H       -0.290227894    -0.340461636    -2.452853985
 H       -0.283178644    -1.900219344    -1.589092663
 H       -1.737355927    -0.869054501    -1.562338640
 H       -0.311338862    -0.373448476     2.444488452
 H       -1.704057793    -1.004642284     1.527740890
 H       -0.180373640    -1.922615944     1.574461989

