139   

Si        0.000000000     0.000000000     0.000000000
 C        1.869763170     0.000000000     0.000000000
 C       -0.627816520     1.736728673     0.000000000
 C        0.139545112     2.771404575    -0.545700423
 C       -0.334243644     4.082747447    -0.545821605
 C       -1.587480804     4.390031957    -0.008731057
 C       -2.357002649     3.351988345     0.532650310
 C       -1.885166532     2.041514742     0.536522584
 C       -2.121626680     5.748196742     0.011570961
 C       -1.480846727     6.825590797    -0.472899312
 C       -2.007126514     8.186498190    -0.456762490
 C       -3.258533764     8.506421555     0.077319058
 C       -3.720583181     9.822358660     0.070896550
 C       -2.934689891    10.847580140    -0.464165133
 C       -1.679737267    10.531137726    -0.999537806
 C       -1.224467039     9.215397262    -0.997632017
Si       -3.528349406    12.593406734    -0.481628343
 C       -2.057555528    13.684788952    -0.456228250
 C       -1.728202102    14.586081116    -1.390066119
 C       -0.535004110    15.435066109    -1.317383422
 C       -0.292185659    16.345411716    -2.357503110
 C        0.822085225    17.169653662    -2.334559545
 C        1.717411794    17.105187842    -1.254152950
 C        1.486252231    16.198107913    -0.214884648
 C        0.371818161    15.365764670    -0.257375055
 N        2.842919518    17.992403415    -1.310852657
 C        2.483587307    19.358488019    -0.870842097
 C        4.058293860    17.476952279    -0.655688571
 C        2.228589824    19.499926479     0.643338317
 C        1.341139840    20.716841774     0.967561789
 N       -0.073040869    20.390628095     1.244250746
 C       -0.803891962    19.856099856     0.156242640
 C       -0.770561508    20.543864927    -1.074416106
 C       -1.470965801    20.056427474    -2.165003940
 C       -2.275582689    18.912514081    -2.055301003
 C       -2.336212701    18.255331994    -0.824263221
 C       -1.618397185    18.717911726     0.272680488
 C       -0.249705273    19.713701586     2.540780744
 C       -2.992127317    18.444259130    -3.241989776
 C       -3.790768780    17.368891351    -3.273219956
Si       -4.681694782    16.794881111    -4.767842736
 C       -4.302190445    17.917789957    -6.180794711
 C       -5.294536223    18.673939366    -6.812149445
 C       -4.972420473    19.512737784    -7.877515765
 C       -3.652433993    19.619675969    -8.332529787
 C       -2.661758006    18.864100213    -7.697429962
 C       -2.980682974    18.022393673    -6.634224594
 C       -3.364447911    20.511252939    -9.451354185
 C       -2.144863314    20.700817922    -9.982929571
 C       -1.854725457    21.591831687   -11.101638909
 C       -2.842842042    22.348605659   -11.738793145
 C       -2.520937552    23.187500375   -12.804421808
 C       -1.199284075    23.292187911   -13.254848382
 C       -0.208699896    22.535961156   -12.618351372
 C       -0.534096243    21.695013797   -11.556138402
Si       -0.801468307    24.411161923   -14.668436896
 C       -1.488956540    26.112063517   -14.310447238
 C        1.047042369    24.536857846   -14.915094749
 C       -1.588585822    23.714669266   -16.213553140
 C       -4.090797918    15.073898442    -5.195492604
 C       -6.511081183    16.758875491    -4.396285891
 C       -4.568323981    12.861074155    -2.007803785
 C       -4.541039572    12.962753875     1.044417160
 C       -0.634163416    -0.856328392    -1.534538318
 C       -0.607166738    -0.896306402     1.523993283
 H        1.126691338     2.594316703    -0.981766980
 H        0.285016720     4.869762044    -0.972955357
 H       -3.336104300     3.568855798     0.955944199
 H       -2.529910838     1.274276636     0.973835804
 H       -3.113854403     5.844227826     0.461631551
 H       -0.488343257     6.726367485    -0.923275783
 H       -3.885956216     7.725702519     0.503277556
 H       -4.707737144    10.011744952     0.500904505
 H       -1.022756067    11.294771897    -1.430061874
 H       -0.247463422     8.987034811    -1.420174982
 H       -1.427862545    13.538183781     0.437516659
 H       -2.330658597    14.759794359    -2.292017306
 H       -0.991946225    16.415012532    -3.192816652
 H        1.011606297    17.871674376    -3.145583006
 H        2.171604213    16.134645592     0.624822163
 H        0.208586784    14.659718282     0.557302487
 H        4.900483231    18.143292393    -0.910348622
 H        4.291209774    16.479240471    -1.067640267
 H        3.997686551    17.397026618     0.439379604
 H        0.280122385    20.282640763     3.323602447
 H        0.114229419    18.674103718     2.560553248
 H       -1.322056290    19.721355893     2.808390272
 H       -0.193878614    21.460433630    -1.167504102
 H       -1.410793249    20.584613485    -3.117624449
 H       -2.946076484    17.356664842    -0.713786066
 H       -1.676889852    18.165717309     1.205419020
 H       -2.812482795    19.074558810    -4.126366840
 H       -3.966177946    16.757691062    -2.374701038
 H       -6.341276703    18.634720493    -6.498568047
 H       -5.759016857    20.091670365    -8.358076657
 H       -1.628077371    18.928500029    -8.032744150
 H       -2.162811595    17.454379975    -6.178461580
 H       -4.234910180    21.039801329    -9.851074221
 H       -1.274799601    20.171208243    -9.583358928
 H       -3.877409786    22.286689574   -11.405683348
 H       -3.337177077    23.752367211   -13.263773373
 H        0.839463025    22.576986748   -12.926896855
 H        0.250571839    21.113322546   -11.075648514
 H        3.303913494    20.037578862    -1.190040611
 H        1.576219651    19.665501183    -1.443493790
 H        1.750740597    18.575732880     1.025133698
 H        3.189826304    19.579627463     1.180086674
 H        1.740082902    21.251192583     1.860153502
 H        1.374152777    21.461202192     0.140947717
 H        2.268911352    -1.026208991     0.088171543
 H        2.269665936     0.585226745     0.847834605
 H        2.279454056     0.433742270    -0.928940864
 H       -1.252222563    26.820194251   -15.124064634
 H       -1.066731887    26.524934094   -13.376147572
 H       -2.586976055    26.091797200   -14.195721690
 H        1.550543476    24.915328905   -14.007484756
 H        1.492147464    23.557095759   -15.163446229
 H        1.292099808    25.228422657   -15.741138924
 H       -2.684685107    23.630305077   -16.106477869
 H       -1.386475889    24.352907174   -17.091603121
 H       -1.201526213    22.704318508   -16.439154077
 H       -2.998121336    15.047326297    -5.357028722
 H       -4.328456610    14.351268862    -4.394530159
 H       -4.569591912    14.711456112    -6.123020712
 H       -6.882215222    17.757998781    -4.103344009
 H       -7.094551052    16.428027230    -5.273570897
 H       -6.741494680    16.067678916    -3.566043673
 H       -3.986364272    12.669333274    -2.928067800
 H       -5.437645004    12.179313457    -2.023687256
 H       -4.955636214    13.894881822    -2.054667762
 H       -3.980801623    12.724484794     1.966476793
 H       -4.818035825    14.031755700     1.092451631
 H       -5.476065410    12.376557652     1.063658800
 H       -0.291574149    -0.343986257    -2.451680305
 H       -0.284620431    -1.902453242    -1.585784581
 H       -1.738646187    -0.871024295    -1.559726787
 H       -0.307476558    -0.364977555     2.445597327
 H       -1.707348386    -0.987218783     1.534889639
 H       -0.190906283    -1.917880956     1.579420809

