139   

Si        0.000000000     0.000000000     0.000000000
 C        1.869655575     0.000000000     0.000000000
 C       -0.632021152     1.734584941     0.000000000
 C        0.098885023     2.758493430    -0.612332182
 C       -0.377922757     4.068799779    -0.612676802
 C       -1.598948445     4.385168750    -0.010392744
 C       -2.332264750     3.357586688     0.597171979
 C       -1.856829264     2.048485157     0.602112368
 C       -2.136957407     5.741488301     0.013465785
 C       -1.532961865     6.812844635    -0.528151208
 C       -2.069434469     8.169780005    -0.505251729
 C       -3.290221060     8.487829289     0.096568607
 C       -3.765319097     9.798906877     0.095139651
 C       -3.022910841    10.822130876    -0.502654183
 C       -1.798729679    10.507440267    -1.106013152
 C       -1.330786897     9.195984756    -1.109136474
Si       -3.639405386    12.563409832    -0.512322213
 C       -2.171800416    13.662090060    -0.552762724
 C       -1.879408342    14.557375199    -1.504829342
 C       -0.686375061    15.410297806    -1.481588409
 C       -0.473945911    16.314888554    -2.527985307
 C        0.643661137    17.142371035    -2.545966785
 C        1.559355274    17.107690193    -1.487586467
 C        1.349034236    16.206411024    -0.428872598
 C        0.246577109    15.364569210    -0.438032603
 N        2.736890239    17.912781565    -1.406003605
 C        3.307167154    18.381447045    -2.679380953
 C        2.641194889    18.963179798    -0.375078419
 C        2.745599899    19.706373021    -3.228231064
 C        3.097933893    19.873616154    -4.721205706
 N        2.006791394    20.453037997    -5.538816423
 C        0.816349973    19.669752132    -5.475159795
 C        0.865356217    18.377872214    -6.032811802
 C       -0.256934773    17.565782141    -6.003669382
 C       -1.462404672    18.023054093    -5.449878610
 C       -1.508318356    19.312767889    -4.915419824
 C       -0.386359354    20.134324616    -4.927626373
 C        1.830983261    21.895436294    -5.293176330
 C       -2.624279354    17.130253443    -5.440170001
 C       -3.814468408    17.476857859    -4.934611584
Si       -5.316396409    16.431144833    -4.879466515
 C       -5.743717318    16.264129972    -3.090272149
 C       -4.780287223    16.542615113    -2.114136906
 C       -5.088308878    16.420973811    -0.760404610
 C       -6.363331328    16.018946687    -0.352951671
 C       -7.325234114    15.738477744    -1.332319697
 C       -7.020322266    15.856913794    -2.686410993
 C       -6.727097513    15.879053337     1.053165363
 C       -5.893693417    16.118653811     2.080318549
 C       -6.248015749    15.981655469     3.488625331
 C       -7.517166532    15.578947347     3.911224988
 C       -7.811980263    15.461404242     5.269632788
 C       -6.838931926    15.735942509     6.235178202
 C       -5.563806891    16.137060188     5.813639239
 C       -5.274096187    16.259089047     4.457589658
Si       -7.201496960    15.588604718     8.039421387
 C       -8.847043486    14.746611425     8.316604593
 C       -5.855642433    14.577408361     8.852017180
 C       -7.245620770    17.305343566     8.775878022
 C       -6.685137967    17.286892999    -5.812665833
 C       -5.006875623    14.730984894    -5.582452131
 C       -4.746801504    12.798708959    -1.991805894
 C       -4.586865560    12.909395954     1.056654050
 C       -0.632533115    -0.855719738    -1.536025009
 C       -0.604983834    -0.902453528     1.521552172
 H        1.059200626     2.573452448    -1.101576846
 H        0.213050775     4.848082361    -1.090803414
 H       -3.285699173     3.581677238     1.072131237
 H       -2.472400611     1.289989135     1.093269463
 H       -3.101822732     5.842142897     0.518914411
 H       -0.568008850     6.711635999    -1.033855909
 H       -3.882919096     7.709253624     0.572921019
 H       -4.727398601     9.987387400     0.579631238
 H       -1.176351401    11.269416153    -1.586920449
 H       -0.378376492     8.969156918    -1.584509488
 H       -1.509099306    13.523855875     0.318167205
 H       -2.516756951    14.721750449    -2.383763499
 H       -1.190006721    16.375862008    -3.350973627
 H        0.786245645    17.823632652    -3.383294243
 H        2.068570804    16.161543494     0.386203298
 H        0.109836861    14.661660457     0.384254005
 H        3.615319298    19.471337092    -0.283578392
 H        2.417736527    18.495836498     0.599931438
 H        1.864340241    19.716461433    -0.579580382
 H        2.769471136    22.413160603    -5.558305396
 H        1.574110198    22.152917304    -4.254410030
 H        1.046826329    22.287975273    -5.964025844
 H        1.787289823    18.024133150    -6.490267274
 H       -0.202069922    16.562559878    -6.427334297
 H       -2.432555230    19.690800801    -4.475175557
 H       -0.453341243    21.128868937    -4.496295426
 H       -2.428001597    16.148896827    -5.889795487
 H       -3.975096290    18.478301729    -4.498549168
 H       -3.762636850    16.861642134    -2.369402483
 H       -4.317918974    16.639958481    -0.021070249
 H       -8.323472045    15.423600326    -1.034775394
 H       -7.810014781    15.625882129    -3.405620645
 H       -7.756353806    15.556023401     1.231716369
 H       -4.864096935    16.445261314     1.898022230
 H       -8.291423039    15.354996326     3.179656703
 H       -8.823587033    15.145903771     5.539159987
 H       -4.763578102    16.364702369     6.523600814
 H       -4.278031345    16.572309504     4.148778570
 H        4.405319048    18.485549579    -2.508289221
 H        3.188792417    17.566767010    -3.430927865
 H        1.647427342    19.732905549    -3.083985500
 H        3.133474554    20.558689467    -2.644844524
 H        3.998111491    20.514473387    -4.837831293
 H        3.365100956    18.892503000    -5.176851779
 H        2.268601242    -1.027679095     0.068292683
 H        2.269404065     0.569134885     0.858868916
 H        2.279510102     0.452417730    -0.919870233
 H       -9.043302077    14.601192124     9.394096160
 H       -8.875663376    13.750909562     7.838749514
 H       -9.683286831    15.340473299     7.907254033
 H       -5.783784156    13.571467654     8.399668143
 H       -4.866394413    15.057005177     8.749559362
 H       -6.050218336    14.443560246     9.930819841
 H       -8.035058872    17.921603492     8.308631675
 H       -7.446327459    17.272832952     9.861190224
 H       -6.286464184    17.833072611     8.628602210
 H       -6.936959001    18.262788023    -5.359010539
 H       -6.396942562    17.475498038    -6.862972421
 H       -7.608377289    16.681201154    -5.826468029
 H       -4.202279798    14.205599975    -5.034416474
 H       -5.911829215    14.100110028    -5.519643678
 H       -4.711620843    14.780946623    -6.645624555
 H       -4.204801804    12.644694397    -2.940977058
 H       -5.594486509    12.091034703    -1.976156374
 H       -5.173735528    13.821479551    -2.007317432
 H       -3.975320200    12.719648955     1.956409166
 H       -4.914678430    13.966367770     1.094793012
 H       -5.495247771    12.286451265     1.130494769
 H       -0.287755426    -0.343985625    -2.452559163
 H       -0.284762023    -1.902362928    -1.586235512
 H       -1.737019417    -0.868298440    -1.563078634
 H       -0.312504093    -0.369920857     2.444711067
 H       -1.704340845    -1.002949091     1.528331023
 H       -0.180288120    -1.920510337     1.577344656

