139   

Si        0.000000000     0.000000000     0.000000000
 C        1.868839902     0.000000000     0.000000000
 C       -0.652264269     1.726533829     0.000000000
 C        0.170775516     2.817022775     0.297413684
 C       -0.340375570     4.114810189     0.292389690
 C       -1.687898601     4.350801575     0.007140398
 C       -2.512260010     3.256087554    -0.286463062
 C       -2.002209324     1.960671571    -0.294421334
 C       -2.266544815     5.689754489    -0.009665360
 C       -1.583270301     6.819475014     0.241662390
 C       -2.161866197     8.158895901     0.224907997
 C       -3.509629320     8.388408427    -0.060948962
 C       -4.025329658     9.684315508    -0.067164563
 C       -3.200925668    10.777231045     0.212963541
 C       -1.848111102    10.551009562     0.501010410
 C       -1.336786201     9.256304437     0.507124670
Si       -3.851406485    12.504969567     0.213075844
 C       -2.749125998    13.442777534    -0.908988323
 C       -2.003674633    14.505537876    -0.579894067
 C       -1.140196912    15.212827844    -1.528295557
 C       -0.399300010    16.314931810    -1.084846871
 C        0.430832970    17.013621013    -1.949118965
 C        0.608032339    16.585454234    -3.277693346
 C       -0.126330348    15.467810017    -3.721631260
 C       -0.998308769    14.814732070    -2.862119710
 N        1.444181237    17.272437739    -4.181461033
 C        2.290402334    18.357370165    -3.664340130
 C        2.122284720    16.438720940    -5.190185371
 C        3.465335597    17.886466573    -2.786441027
 C        4.138975025    19.083612391    -2.087663173
 N        4.530285785    18.818388928    -0.687819881
 C        3.477429446    18.465220225     0.185393556
 C        2.244411472    19.144037072     0.086474345
 C        1.194132520    18.818885574     0.929673329
 C        1.351684404    17.870367127     1.950327802
 C        2.585155016    17.225199658     2.070014661
 C        3.634687571    17.509540470     1.204573724
 C        5.761194926    18.014857355    -0.595096137
 C        0.209106515    17.564017108     2.813133076
 C        0.243007856    16.677960591     3.817178930
Si       -1.166050274    16.271592401     4.914075503
 C       -1.585537496    14.480095080     4.783687585
 C       -0.710035408    13.559397687     4.200114342
 C       -1.053351059    12.209634501     4.114783635
 C       -2.268069468    11.748527133     4.629033716
 C       -3.142003024    12.673209031     5.218368573
 C       -2.809030247    14.022653091     5.290932917
 C       -2.676371558    10.350019266     4.566660711
 C       -1.945098508     9.357086002     4.033089380
 C       -2.369088776     7.961684207     3.978806331
 C       -3.597757983     7.530800781     4.488024483
 C       -3.966625740     6.189017524     4.417221752
 C       -3.097362975     5.239912438     3.866326949
 C       -1.860291194     5.665921783     3.371069274
 C       -1.502123203     7.011504160     3.426306398
Si       -3.607975017     3.468705174     3.783363053
 C       -4.301998699     2.949073065     5.441232334
 C       -4.920697375     3.298163440     2.463879180
 C       -2.146262881     2.384567981     3.370101626
 C       -0.665777617    16.643003797     6.674940850
 C       -2.668099058    17.281326946     4.444979633
 C       -5.588935515    12.569863951    -0.473198570
 C       -3.841682215    13.195362591     1.940376167
 C       -0.609861645    -0.891393174    -1.525401321
 C       -0.629454100    -0.857898813     1.536859615
 H        1.231153463     2.695105745     0.533911713
 H        0.324912418     4.947116215     0.514858106
 H       -3.562657617     3.418533939    -0.522603940
 H       -2.692622482     1.147931595    -0.536057352
 H       -3.335502846     5.724677334    -0.238252751
 H       -0.515379453     6.785150316     0.475457973
 H       -4.172592049     7.552428655    -0.274602628
 H       -5.088097662     9.801603963    -0.294091620
 H       -1.159011316    11.371793144     0.725266085
 H       -0.284162420     9.097394223     0.730310704
 H       -2.743755903    13.044127006    -1.936951845
 H       -1.979686629    14.928893749     0.433220806
 H       -0.475459626    16.640472322    -0.044586288
 H        0.961889060    17.883081996    -1.570829672
 H       -0.032272691    15.120260128    -4.745535020
 H       -1.569651152    13.964476919    -3.238288773
 H        2.865861270    17.031227681    -5.746467896
 H        1.376556347    16.087271388    -5.926549624
 H        2.630001836    15.561916880    -4.756390956
 H        6.523774431    18.428533957    -1.276617615
 H        5.615092110    16.950844442    -0.841353008
 H        6.173912453    18.095323500     0.426668211
 H        2.110047059    19.924958075    -0.657456369
 H        0.237854704    19.330472498     0.809946584
 H        2.734111586    16.476522486     2.849492693
 H        4.569616202    16.971437126     1.323615870
 H       -0.694051752    18.131904484     2.551824771
 H        1.167699989    16.129250798     4.057456164
 H        0.254017718    13.861783362     3.780530899
 H       -0.362517943    11.513560210     3.642418883
 H       -4.093627969    12.334333401     5.623324633
 H       -3.534212667    14.695651796     5.756428226
 H       -3.660231128    10.143206797     4.998188857
 H       -0.965857389     9.558106569     3.589358176
 H       -4.286342629     8.247439685     4.931453243
 H       -4.948008815     5.915921099     4.814029157
 H       -1.145287987     4.969545670     2.921860937
 H       -0.538830759     7.325495790     3.029664473
 H        2.672184293    18.935867700    -4.536637740
 H        1.636625249    19.063237411    -3.099309725
 H        3.095644551    17.158177050    -2.034828964
 H        4.197644105    17.325361858    -3.390595044
 H        5.044832872    19.400009408    -2.650271313
 H        3.471067562    19.975822672    -2.088068640
 H        2.266583034    -1.029316533    -0.053023332
 H        2.278408609     0.463937346     0.914526804
 H        2.270925034     0.554251211    -0.867129015
 H       -4.586598693     1.882537831     5.438609540
 H       -5.199406309     3.532589662     5.709556599
 H       -3.559527734     3.093963237     6.246586272
 H       -5.805606079     3.917049761     2.693082841
 H       -4.533204587     3.624645079     1.481298298
 H       -5.256015745     2.251901085     2.362776804
 H       -1.334342494     2.497014401     4.109298126
 H       -2.428228940     1.317730767     3.342002318
 H       -1.729346416     2.637740898     2.374844974
 H        0.200920934    16.032692731     6.986506680
 H       -0.385978434    17.704701973     6.797038999
 H       -1.489157156    16.429927090     7.379465972
 H       -3.002121169    17.049356176     3.416818811
 H       -3.518077651    17.083756189     5.121011854
 H       -2.454245186    18.363950177     4.493661582
 H       -5.643425848    12.136558520    -1.487212133
 H       -6.296671275    12.017669788     0.169413810
 H       -5.947674062    13.612877639    -0.541082901
 H       -2.813738791    13.254528991     2.351507654
 H       -4.268931749    14.212794326     1.974445871
 H       -4.425630894    12.562692503     2.633774714
 H       -0.291313009    -0.369837881    -2.446365830
 H       -0.213783044    -1.921157988    -1.572976029
 H       -1.711595796    -0.958352758    -1.547992730
 H       -0.299683679    -0.333424120     2.452160144
 H       -1.733445384    -0.891823123     1.555765551
 H       -0.262025345    -1.897226473     1.596582614

