139   

Si        0.000000000     0.000000000     0.000000000
 C        1.869675878     0.000000000     0.000000000
 C       -0.615386532     1.741127529     0.000000000
 C        0.102700300     2.751251117     0.649288353
 C       -0.361309272     4.066208467     0.649741771
 C       -1.553485890     4.401507096     0.002798628
 C       -2.273767462     3.387830248    -0.643270177
 C       -1.814204974     2.073362062    -0.642575428
 C       -2.081909175     5.760103348    -0.026267006
 C       -1.506424153     6.830380083     0.548429119
 C       -2.063661920     8.178925292     0.499860639
 C       -1.382912379     9.226406301     1.133129584
 C       -1.887990068    10.525487206     1.105456050
 C       -3.077866604    10.807874592     0.425966476
 C       -3.757685797     9.763132524    -0.210977689
 C       -3.257744311     8.463887018    -0.168953681
Si       -3.792497324    12.511100799     0.356996031
 C       -5.583226204    12.306659843     0.022837710
 C       -6.234266856    12.796259554    -1.040694462
 C       -7.666640541    12.619367933    -1.285659409
 C       -8.235554617    13.180523017    -2.437737482
 C       -9.586046344    13.041254052    -2.714655694
 C      -10.439432790    12.387132726    -1.799061185
 C       -9.870804615    11.836898828    -0.632153791
 C       -8.506544551    11.940542561    -0.398212227
 N      -11.800169892    12.252439281    -2.088929981
 C      -12.512164232    13.266190150    -2.886586444
 C      -12.631806948    11.569572385    -1.088122935
 C      -12.106619880    14.738327497    -2.691979615
 C      -13.193233047    15.605679057    -2.026784352
 N      -13.437640818    15.339468288    -0.598469879
 C      -12.307765871    15.208240162     0.227228878
 C      -11.239814464    16.115090455     0.046259558
 C      -10.107746558    16.024476650     0.835446040
 C       -9.992656382    15.036907308     1.825536166
 C      -11.060394750    14.158854419     2.019297029
 C      -12.217276697    14.252271636     1.253231351
 C      -14.587996238    14.467687498    -0.330880951
 C       -8.768528407    14.996749697     2.625123127
 C       -8.526935833    14.110438460     3.599815241
Si       -6.987369919    14.079869951     4.586901607
 C       -6.127117937    12.462704206     4.378758118
 C       -4.993426804    12.234421510     5.170173542
 C       -4.292130273    11.037315384     5.068392164
 C       -4.671259793    10.058834476     4.142020899
 C       -5.793673739    10.297188150     3.340664286
 C       -6.519330225    11.483488112     3.461676443
 C       -3.941884595     8.797443559     4.026291092
 C       -2.858086822     8.510900986     4.767641547
 C       -2.072268593     7.285014928     4.719527085
 C       -2.357950966     6.217445608     3.866586924
 C       -1.561282581     5.071061462     3.873274819
 C       -0.470315803     4.965651724     4.741867889
 C       -0.182497294     6.036536031     5.598377455
 C       -0.970687707     7.182287355     5.581588160
Si        0.605277209     3.466613114     4.779483567
 C       -0.336330195     1.994493402     4.121409961
 C        2.113670719     3.791516025     3.722599258
 C        1.134989849     3.106442632     6.536806961
 C       -5.831552430    15.452394674     4.065282863
 C       -7.455389286    14.292222299     6.385006799
 C       -3.522282822    13.382039247     1.980376916
 C       -2.946701212    13.461266742    -1.012109063
 C       -0.606533376    -0.896501113    -1.524121828
 C       -0.641138491    -0.858980794     1.530230426
 H        1.050867513     2.549424703     1.156892012
 H        0.216799934     4.838258908     1.156395838
 H       -3.204591676     3.627234318    -1.153696351
 H       -2.419493510     1.327020002    -1.163508430
 H       -3.022753275     5.866497562    -0.575279178
 H       -0.568874067     6.736209652     1.103842288
 H       -0.455662368     9.023999813     1.666176306
 H       -1.324975387    11.299838548     1.632235658
 H       -4.694237222     9.925029489    -0.755973296
 H       -3.808681745     7.669323895    -0.668428322
 H       -6.110934759    11.732926493     0.802388586
 H       -5.733164329    13.378274669    -1.825070722
 H       -7.603354088    13.720050601    -3.143480636
 H       -9.985156102    13.431994305    -3.645268323
 H      -10.488988671    11.340177892     0.107722728
 H       -8.092969722    11.498851175     0.510481729
 H      -13.655170095    11.429110949    -1.471967214
 H      -12.678075697    12.106407459    -0.124551153
 H      -12.223704969    10.556197429    -0.908298316
 H      -15.454743515    14.814726884    -0.920084755
 H      -14.874623743    14.558478425     0.733520786
 H      -14.412207896    13.406297904    -0.560776004
 H      -11.310561295    16.894247221    -0.707515502
 H       -9.290350005    16.729877067     0.678544684
 H      -10.997407550    13.388057302     2.789100791
 H      -13.035524893    13.568395263     1.449345814
 H       -8.045462412    15.772751558     2.336081399
 H       -9.261881656    13.337791188     3.869651634
 H       -4.631154891    12.965622240     5.898696740
 H       -3.429941939    10.875737986     5.713526646
 H       -6.102998659     9.550151768     2.611434364
 H       -7.395810723    11.617411308     2.820375783
 H       -4.326575898     8.094646444     3.284562393
 H       -2.487791131     9.242170757     5.496482585
 H       -3.201768934     6.277221498     3.180738581
 H       -1.827249692     4.270706042     3.174885774
 H        0.656575377     6.012511629     6.298461896
 H       -0.729571987     8.005780184     6.250749254
 H      -12.334558921    12.985843535    -3.956958151
 H      -13.606865934    13.153831974    -2.726986537
 H      -11.173164889    14.804919644    -2.089977836
 H      -11.845649179    15.183734028    -3.670228433
 H      -12.900515570    16.681432083    -2.110406784
 H      -14.150962017    15.510368323    -2.583349520
 H        2.269453960    -1.027225169    -0.067943460
 H        2.279887100     0.454109540     0.919105011
 H        2.267794161     0.568607800    -0.859965715
 H        0.284474577     1.081883104     4.135408210
 H       -0.669556584     2.158603555     3.078728681
 H       -1.239246926     1.794477000     4.726037233
 H        1.835204663     4.067806640     2.689974403
 H        2.715768204     4.622031090     4.132159830
 H        2.764720803     2.901824501     3.669434608
 H        0.259312763     2.991745691     7.201016434
 H        1.719807763     2.171750105     6.594900106
 H        1.761599978     3.914381851     6.951756668
 H       -5.612610487    15.401424958     2.982165801
 H       -6.270280017    16.444570924     4.272080089
 H       -4.868344222    15.396021955     4.601640571
 H       -8.096471900    13.463019090     6.734150208
 H       -6.565301081    14.319465676     7.036761002
 H       -8.014418839    15.231913748     6.542624070
 H       -3.933006246    12.786860336     2.820812869
 H       -2.449248765    13.540013056     2.183140137
 H       -4.015955347    14.369345415     1.996953426
 H       -3.068721179    12.956763377    -1.987418870
 H       -3.356991414    14.481753660    -1.106465932
 H       -1.862299297    13.552985718    -0.823856548
 H       -0.311436322    -0.363399904    -2.446034990
 H       -0.185294829    -1.915914292    -1.581648018
 H       -1.706162473    -0.993622213    -1.532435510
 H       -0.300276768    -0.352337725     2.451579934
 H       -1.745709340    -0.871245684     1.550589128
 H       -0.295317569    -1.906384100     1.577026529

