139   

Si        0.000000000     0.000000000     0.000000000
 C        1.872617776     0.000000000     0.000000000
 C       -0.574034879     1.753563340     0.000000000
 C       -0.219511695     2.585087044    -1.069103343
 C       -0.636887025     3.913216238    -1.098772017
 C       -1.433239875     4.438777615    -0.075717154
 C       -1.796620631     3.602459401     0.985804984
 C       -1.374034029     2.274179857     1.022833802
 C       -1.884231147     5.827903365    -0.083063062
 C       -1.575271872     6.699297998    -1.057993804
 C       -1.993026880     8.093656287    -1.122641057
 C       -1.569897282     8.852324536    -2.224151026
 C       -1.931939154    10.188971735    -2.349113993
 C       -2.713623510    10.805246283    -1.361968980
 C       -3.124746102    10.056686001    -0.256541060
 C       -2.762609253     8.713320111    -0.135721942
Si       -3.163926532    12.576616184    -1.577686112
 C       -4.538663347    13.080475501    -0.474211998
 C       -4.427930335    14.047624699     0.445726494
 C       -5.502918355    14.477253840     1.344268355
 C       -5.231469472    15.507580264     2.257416847
 C       -6.207496465    15.958078081     3.133725508
 C       -7.498824058    15.413217236     3.077187762
 C       -7.785846501    14.403137183     2.152997980
 C       -6.792222982    13.942343786     1.294038661
 N       -8.440791050    15.944648267     4.025927867
 C       -8.469005876    15.172561529     5.287406320
 C       -9.781388155    16.166851155     3.452682249
 C       -9.118270918    13.780803517     5.181638916
 C       -8.348592449    12.664353834     5.910434825
 N       -7.130711719    12.148564120     5.270485277
 C       -7.224265570    11.477792896     4.038583525
 C       -8.444154561    11.266679992     3.369265367
 C       -8.471306918    10.596215501     2.153624101
 C       -7.320152117    10.001679835     1.626317472
 C       -6.113241616    10.172560561     2.315413622
 C       -6.054862229    10.908834528     3.487162320
 C       -5.943896325    13.007649362     5.432177656
 C       -7.405492548     9.307458938     0.340788933
 C       -6.370514545     8.703852782    -0.257227263
Si       -6.440235628     7.827156395    -1.862826955
 C       -5.944746054     6.073171768    -1.573881102
 C       -6.032412942     5.534021888    -0.285376388
 C       -5.663621166     4.211856213    -0.044012181
 C       -5.208337244     3.397575635    -1.084524547
 C       -5.120128949     3.940056037    -2.373216895
 C       -5.478317657     5.264439233    -2.616117254
 C       -4.812425131     2.008618608    -0.875218796
 C       -4.851330410     1.375866543     0.309921667
 C       -4.456477290    -0.012200814     0.523096308
 C       -3.990971643    -0.827866104    -0.512065706
 C       -3.622982210    -2.150230068    -0.268357829
 C       -3.711928062    -2.688563370     1.020793386
 C       -4.176049074    -1.873263559     2.059672653
 C       -4.541868476    -0.551688058     1.812976965
Si       -3.217640930    -4.443217075     1.314270021
 C       -4.508668500    -5.556229753     0.549501893
 C       -1.555389998    -4.752640115     0.515293266
 C       -3.089262010    -4.793702110     3.145649266
 C       -8.165484057     7.843745401    -2.580416992
 C       -5.258721724     8.657680278    -3.042774052
 C       -1.632898208    13.599463202    -1.259204039
 C       -3.759645485    12.845058630    -3.331026392
 C       -0.595644615    -0.854076364    -1.551506414
 C       -0.613203606    -0.885342923     1.522087240
 H        0.392367290     2.231030083    -1.903092112
 H       -0.341745005     4.540246063    -1.938283034
 H       -2.421750937     3.987791161     1.788785774
 H       -1.695640140     1.664759748     1.871884221
 H       -2.509667487     6.122123451     0.762976662
 H       -0.957433881     6.378360534    -1.903906187
 H       -0.957320468     8.389512684    -2.995315961
 H       -1.579448388    10.725464159    -3.234336085
 H       -3.730497349    10.498948363     0.541642820
 H       -3.085968199     8.145804201     0.735473027
 H       -5.479073236    12.524967914    -0.618160719
 H       -3.495533377    14.607427133     0.606301370
 H       -4.237820747    15.953704260     2.290406929
 H       -5.993314564    16.748927599     3.851437076
 H       -8.782145705    13.971602976     2.096189876
 H       -7.027221516    13.143506854     0.588359132
 H      -10.375723859    16.754696970     4.172813329
 H      -10.339836069    15.252337064     3.205228944
 H       -9.681405051    16.772114189     2.534473287
 H       -5.995937318    13.568284867     6.378590712
 H       -5.818646000    13.726002073     4.601461410
 H       -5.039810663    12.374431084     5.485278695
 H       -9.377838498    11.630890028     3.784026033
 H       -9.420477574    10.500364685     1.625362586
 H       -5.198071089     9.722538774     1.927002816
 H       -5.099722517    11.035312381     3.989406072
 H       -8.412684635     9.328259068    -0.094942207
 H       -5.369349103     8.696221679     0.202901833
 H       -6.385782615     6.122628446     0.567961709
 H       -5.734759067     3.816985223     0.967499296
 H       -4.758390092     3.324601628    -3.194341981
 H       -5.376887936     5.637748644    -3.638233084
 H       -4.457878654     1.493409184    -1.772578438
 H       -5.198380167     1.895705998     1.207414679
 H       -3.921003372    -0.432634788    -1.524731570
 H       -3.268405318    -2.738939212    -1.119276156
 H       -4.266847764    -2.239102837     3.085624702
 H       -4.900555293     0.065813153     2.634203960
 H       -7.423080087    15.099457862     5.656412252
 H       -9.012667058    15.794147906     6.034039602
 H      -10.149150041    13.821774919     5.580467516
 H       -9.230242935    13.510021501     4.112627853
 H       -8.074638868    13.002886000     6.936323723
 H       -9.030335708    11.789630087     6.055282510
 H        2.273159921    -1.028291416     0.000515601
 H        2.271964667     0.514726679     0.892235138
 H        2.276462202     0.517134430    -0.887426514
 H       -4.258784030    -6.621958373     0.693238456
 H       -4.603559431    -5.378459470    -0.536579982
 H       -5.503631627    -5.383627947     0.998500433
 H       -1.583346059    -4.559333510    -0.571403515
 H       -0.776005861    -4.098156074     0.946598363
 H       -1.230029937    -5.797794786     0.659660256
 H       -4.063748314    -4.675854194     3.651730764
 H       -2.746268363    -5.827478939     3.330251194
 H       -2.370545015    -4.114261257     3.637730855
 H       -8.888304632     7.353411527    -1.903941323
 H       -8.517529258     8.874333596    -2.761103085
 H       -8.201671757     7.304937655    -3.543937853
 H       -4.225343191     8.653124832    -2.640006248
 H       -5.234142665     8.153381118    -4.023030348
 H       -5.537066928     9.712927410    -3.212967161
 H       -1.268446537    13.468007369    -0.224226213
 H       -0.809077365    13.307323463    -1.934654986
 H       -1.824489636    14.675635236    -1.415600936
 H       -4.622300057    12.194972874    -3.564537432
 H       -4.080730724    13.890863855    -3.486096022
 H       -2.968782226    12.627249962    -4.068861715
 H       -0.147621161    -0.406755669    -2.455497985
 H       -0.334156352    -1.926507324    -1.540504665
 H       -1.692925138    -0.777883643    -1.652591990
 H       -0.271631950    -0.389355243     2.447194687
 H       -1.720990746    -0.913264352     1.546217411
 H       -0.256178201    -1.929164936     1.554605843

