139   

Si        0.000000000     0.000000000     0.000000000
 C        1.870300888     0.000000000     0.000000000
 C       -0.604525772     1.744982516     0.000000000
 C        0.014466985     2.706534089    -0.807355311
 C       -0.436441816     4.025923692    -0.812592357
 C       -1.541239378     4.405363318    -0.044586482
 C       -2.166463948     3.439367632     0.754137820
 C       -1.699111136     2.127596869     0.784264377
 C       -2.051486929     5.772048728    -0.015939840
 C       -1.533749028     6.802490371    -0.706504372
 C       -2.055450463     8.165241882    -0.667742395
 C       -3.161993183     8.521409491     0.108009370
 C       -3.632525681     9.833666425     0.120210207
 C       -2.984190375    10.828810566    -0.618284123
 C       -1.866830726    10.478213657    -1.386865629
 C       -1.411979711     9.162077659    -1.413343837
Si       -3.609193473    12.565206429    -0.600363194
 C       -2.589218589    13.590457135     0.522856261
 C       -1.538887777    13.161230333     1.236017468
 C       -0.746652608    14.012966957     2.124990872
 C        0.332588327    13.453732381     2.822483664
 C        1.111938297    14.219121285     3.675348191
 C        0.857111464    15.594034240     3.849048316
 C       -0.235588042    16.154650978     3.153628768
 C       -1.026747129    15.367616066     2.328068277
 N        1.629305496    16.396422494     4.706342175
 C        2.932045902    15.892435296     5.180801318
 C        1.651953643    17.835878962     4.386748569
 C        3.237688253    16.406231984     6.601964091
 C        2.338648046    15.772397586     7.682964709
 N        2.676594298    14.393625771     8.091931159
 C        2.221260576    13.392963166     7.190228654
 C        0.825934022    13.243881203     7.060365058
 C        0.308386024    12.290420067     6.201478179
 C        1.156331430    11.432934017     5.480593300
 C        2.536577934    11.565039703     5.637631430
 C        3.071546427    12.526391355     6.491044482
 C        4.060301269    14.242368771     8.568610397
 C        0.548904269    10.444718170     4.587611971
 C        1.239775422     9.569832995     3.845259785
Si        0.460886517     8.341032993     2.733953924
 C        0.875967495     6.603204304     3.174871357
 C        1.314101666     6.224405206     4.446401955
 C        1.614153150     4.889096939     4.721335266
 C        1.464712020     3.906467665     3.739093532
 C        1.018243940     4.288924208     2.467753670
 C        0.729181756     5.619945303     2.187680851
 C        1.761710546     2.496865898     3.966144365
 C        2.196810352     1.973089726     5.124212367
 C        2.487200424     0.557018791     5.325948919
 C        2.334355317    -0.392852577     4.311883767
 C        2.621978840    -1.737139183     4.542917801
 C        3.060278690    -2.164882380     5.800648200
 C        3.212910523    -1.216067892     6.819506480
 C        2.932960729     0.127668159     6.582628876
Si        3.441693571    -3.944184758     6.108888650
 C        2.404916428    -5.024729121     4.988688631
 C        5.255001364    -4.226793455     5.756999000
 C        3.065093875    -4.379733256     7.887530588
 C       -1.398998100     8.486667855     2.822436642
 C        1.070118105     8.734051370     1.011133953
 C       -3.516629546    13.278201651    -2.325830476
 C       -5.380560960    12.615811907    -0.004849927
 C       -0.646988652    -0.860868924    -1.524586297
 C       -0.592519784    -0.884293092     1.536819061
 H        0.870225787     2.465626093    -1.444038461
 H        0.073474148     4.758338269    -1.435753264
 H       -3.022228107     3.715809258     1.368116827
 H       -2.217321061     1.422965903     1.441185812
 H       -2.920715923     5.918165311     0.633397733
 H       -0.669587016     6.658844455    -1.361144392
 H       -3.683178070     7.768046767     0.696894322
 H       -4.513525548    10.045494902     0.732880636
 H       -1.320293179    11.214700525    -1.983098424
 H       -0.546579120     8.908278453    -2.022506107
 H       -2.917613626    14.640420535     0.572574767
 H       -1.187955108    12.119263943     1.207201825
 H        0.566801627    12.392463786     2.702013536
 H        1.926824558    13.734219360     4.211600543
 H       -0.487280959    17.202905992     3.273625338
 H       -1.874644423    15.827417189     1.819214147
 H        2.454180109    18.353971782     4.935011242
 H        0.695688874    18.288280080     4.707620724
 H        1.796863012    18.033294780     3.311053485
 H        4.242486788    14.977595073     9.371070578
 H        4.831679463    14.373822024     7.794364459
 H        4.177712365    13.237842810     9.013584450
 H        0.161261253    13.890689059     7.630363046
 H       -0.773054099    12.202315336     6.089234014
 H        3.213451244    10.907344963     5.091443938
 H        4.148952226    12.604479286     6.594445853
 H       -0.549911618    10.488087164     4.587261266
 H        2.339595778     9.544109321     3.861099601
 H        1.441278002     6.951627675     5.253387071
 H        1.962987846     4.617050481     5.715404770
 H        0.886347026     3.538950807     1.686430216
 H        0.383191702     5.854174735     1.174585820
 H        1.599912629     1.855355245     3.093287059
 H        2.358871087     2.607248974     5.999479968
 H        1.991206180    -0.087163154     3.324411017
 H        2.486270080    -2.430545959     3.708500147
 H        3.551547912    -1.491563355     7.821955826
 H        3.060350124     0.850121293     7.386730512
 H        2.928768878    14.777017093     5.202623933
 H        3.750939859    16.187821658     4.487639790
 H        4.303267517    16.219131039     6.828217066
 H        3.112384231    17.505161762     6.645351637
 H        2.372133868    16.396093615     8.605406362
 H        1.279561127    15.791933345     7.329596357
 H        2.270674953    -1.026416979     0.077671749
 H        2.276305837     0.580369425     0.849059484
 H        2.277545377     0.443085108    -0.925529744
 H        2.565185389    -6.095315358     5.208042340
 H        2.650389095    -4.866161184     3.924199976
 H        1.327411281    -4.817251031     5.118858273
 H        5.504949943    -3.975824143     4.710460537
 H        5.892878580    -3.600211246     6.406140960
 H        5.538721331    -5.280379746     5.925441511
 H        2.015654447    -4.145161869     8.142429213
 H        3.219811056    -5.456896226     8.076394702
 H        3.710857320    -3.825164865     8.590668561
 H       -1.763356990     8.406974731     3.861441219
 H       -1.753011050     9.447964186     2.406410060
 H       -1.878195529     7.677208718     2.241394882
 H        2.162609891     8.601578805     0.928859105
 H        0.593605989     8.082499397     0.257423452
 H        0.834730741     9.778870043     0.736372165
 H       -2.473147233    13.347375440    -2.681455189
 H       -4.073999896    12.652542346    -3.045700370
 H       -3.946112729    14.294773346    -2.364413716
 H       -5.464566271    12.296597740     1.049368259
 H       -5.795146208    13.637481459    -0.071163598
 H       -6.026465904    11.955678693    -0.610425097
 H       -0.305647071    -0.360275658    -2.448179821
 H       -0.308329142    -1.910726636    -1.570754127
 H       -1.751760794    -0.867188530    -1.545551308
 H       -0.310126620    -0.337074946     2.455780200
 H       -1.690864890    -0.997861182     1.544162882
 H       -0.158554577    -1.897611809     1.608297936

