139   

Si        0.000000000     0.000000000     0.000000000
 C        1.869289693     0.000000000     0.000000000
 C       -0.646720778     1.729353824     0.000000000
 C        0.133293072     2.791819019     0.467907450
 C       -0.365310585     4.094436018     0.463349652
 C       -1.654992186     4.364033070    -0.002467845
 C       -2.436894053     3.297785108    -0.466411286
 C       -1.941276814     1.996542176    -0.464197489
 C       -2.218986365     5.709783285    -0.026328242
 C       -1.577216894     6.815784187     0.387121116
 C       -2.141407761     8.161430916     0.363168497
 C       -3.431548972     8.428939658    -0.103134961
 C       -3.932292150     9.730894993    -0.108627953
 C       -3.147367917    10.793139029     0.347660287
 C       -1.853067698    10.529586317     0.815750046
 C       -1.358926721     9.228338326     0.825067539
Si       -3.778812924    12.527237348     0.354051301
 C       -2.336702969    13.606205403     0.022951020
 C       -1.862939718    14.565525642     0.827779331
 C       -0.699750903    15.396613317     0.501515666
 C       -0.289784736    16.374300089     1.420829740
 C        0.804586357    17.183494964     1.155068904
 C        1.511011165    17.028841135    -0.048086217
 C        1.104653414    16.063803970    -0.974956218
 C        0.001698472    15.261872474    -0.699122163
 N        2.630218663    17.908915442    -0.239856101
 C        3.861445869    17.356910662     0.368101776
 C        2.817383929    18.345693931    -1.635094057
 C        4.491009860    16.175229749    -0.396832618
 C        5.336587593    15.272293497     0.521666015
 N        4.657196392    14.039816428     0.970209942
 C        3.552057944    14.222952444     1.834897042
 C        3.720471032    15.041788167     2.970643202
 C        2.665714863    15.248573396     3.843809090
 C        1.432706998    14.607518368     3.653046116
 C        1.281712319    13.767348542     2.547614154
 C        2.324917171    13.565198584     1.651293639
 C        4.474940430    13.066982046    -0.120701486
 C        0.354735605    14.864764755     4.608434745
 C       -0.866287223    14.317926320     4.540272832
Si       -2.209097540    14.646931996     5.742128904
 C       -1.618010353    15.826365763     7.030432976
 C       -1.544967047    15.468727109     8.378934150
 C       -1.093486905    16.382911891     9.331493075
 C       -0.701485066    17.670361908     8.956476501
 C       -0.773211382    18.026308229     7.602467538
 C       -1.225139519    17.117724611     6.650269604
 C       -0.223124595    18.658641510     9.917865731
 C       -0.107042903    18.444945317    11.239552581
 C        0.371017987    19.431620538    12.202704697
 C        0.761823554    20.721229280    11.830868607
 C        1.212526193    21.632072881    12.785379559
 C        1.275776150    21.274880094    14.137157080
 C        0.884489857    19.984021495    14.511774257
 C        0.440845783    19.073845955    13.555242953
Si        1.874650724    22.490948729    15.390962266
 C        1.209674232    24.189938670    14.983366874
 C        1.292807807    22.005318601    17.099779911
 C        3.742538670    22.510763880    15.344672771
 C       -3.646048116    15.427040807     4.834876970
 C       -2.743626784    13.022055622     6.489515743
 C       -5.034281144    12.793336832    -1.001055286
 C       -4.549954302    12.868196189     2.018113841
 C       -0.602926876    -0.896593932    -1.525850192
 C       -0.629825203    -0.861531130     1.533764702
 H        1.149146189     2.643800053     0.844755404
 H        0.263579225     4.904066338     0.829754754
 H       -3.444404122     3.485590628    -0.833197946
 H       -2.597701339     1.206191155    -0.838685006
 H       -3.239088308     5.770908626    -0.417023191
 H       -0.557332718     6.754498490     0.778545147
 H       -4.059719739     7.617914998    -0.467054381
 H       -4.948313884     9.878438689    -0.484093959
 H       -1.194175291    11.324926176     1.181769587
 H       -0.351745741     9.040617016     1.194151014
 H       -1.858088421    13.393850123    -0.948405364
 H       -2.313315582    14.808197425     1.799511866
 H       -0.826613495    16.491937618     2.363662636
 H        1.126029531    17.940273779     1.869803144
 H        1.638979967    15.939966466    -1.912063861
 H       -0.305678052    14.515898120    -1.432475884
 H        3.569544691    19.153245893    -1.648248297
 H        1.868721020    18.771447274    -2.006716135
 H        3.140755552    17.558034489    -2.330655177
 H        5.433078047    12.929941047    -0.650108609
 H        3.708556803    13.353746066    -0.858273359
 H        4.203757489    12.086543791     0.311736311
 H        4.681726682    15.511121999     3.162994570
 H        2.805257025    15.906231204     4.702907457
 H        0.329000759    13.263639469     2.370765978
 H        2.160156798    12.919013506     0.794572714
 H        0.648342148    15.562192986     5.407446639
 H       -1.135589988    13.613308440     3.737913545
 H       -1.833830447    14.474943189     8.732271919
 H       -1.047718791    16.080042926    10.376119202
 H       -0.472646495    19.024770417     7.290223181
 H       -1.260009013    17.452378175     5.608335229
 H        0.047018911    19.625772923     9.483937065
 H       -0.377610846    17.477279503    11.672918870
 H        0.717467647    21.025373572    10.786603621
 H        1.506265832    22.624846779    12.433019359
 H        0.911950395    19.649043852    15.552321426
 H        0.143276765    18.074015075    13.866368220
 H        4.589977522    18.192693429     0.452907541
 H        3.608599873    17.049345965     1.410730931
 H        3.692261592    15.574398228    -0.874317224
 H        5.112093168    16.555135097    -1.226735909
 H        6.268873876    14.963216528    -0.004796533
 H        5.678269108    15.833532946     1.419746760
 H        2.267356502    -1.028272586    -0.067677682
 H        2.279337891     0.451638971     0.920370502
 H        2.270128812     0.567607084    -0.859197573
 H        1.501497784    24.928601582    15.750888614
 H        0.105695899    24.184185379    14.930435803
 H        1.586602652    24.555319284    14.012189103
 H        0.192502382    21.910344350    17.136718983
 H        1.723522627    21.040430009    17.420141575
 H        1.585062782    22.761525412    17.850241927
 H        4.117931678    22.796241645    14.345640466
 H        4.156067219    23.228149161    16.075113516
 H        4.160383270    21.515281087    15.580360077
 H       -3.349252722    16.367535204     4.337353734
 H       -4.052766947    14.752223664     4.060988543
 H       -4.468532603    15.668377350     5.531901614
 H       -1.906426776    12.523451174     7.011523718
 H       -3.559682479    13.161526204     7.220141122
 H       -3.108073150    12.322555424     5.715195323
 H       -4.628586422    12.511276243    -1.989454592
 H       -5.947893692    12.196818366    -0.833018162
 H       -5.338428267    13.854446925    -1.060761821
 H       -3.834131923    12.677602632     2.839011823
 H       -4.893285755    13.915236407     2.096436101
 H       -5.426048549    12.217759912     2.192824494
 H       -0.303454160    -0.363541321    -2.446508022
 H       -0.183863709    -1.916969621    -1.581640471
 H       -1.702823793    -0.989990028    -1.538908526
 H       -0.285691834    -0.350663865     2.451249441
 H       -1.734140457    -0.877865620     1.561616307
 H       -0.278468369    -1.907165591     1.581759678

