139   

Si        0.000000000     0.000000000     0.000000000
 C        1.869445999     0.000000000     0.000000000
 C       -0.641081032     1.731815072     0.000000000
 C        0.157422251     2.796391163     0.430303038
 C       -0.336204628     4.100774474     0.426416349
 C       -1.639648059     4.369891511     0.000889887
 C       -2.440071626     3.301832239    -0.425499395
 C       -1.948760525     1.998940083    -0.425919327
 C       -2.197748932     5.717656275    -0.020112528
 C       -1.536386339     6.824623894     0.358431274
 C       -2.097198696     8.171344776     0.336333918
 C       -1.298131758     9.242580255     0.758878297
 C       -1.791914329    10.544430685     0.754605313
 C       -3.107259433    10.801474364     0.347579652
 C       -3.908491066     9.733256644    -0.066795871
 C       -3.406722115     8.432281647    -0.074993171
Si       -3.761867092    12.527764245     0.341967509
 C       -5.517934666    12.461442779    -0.170900176
 C       -6.017682109    13.079297022    -1.249012597
 C       -7.423433612    13.021434105    -1.652582943
 C       -7.818047815    13.715985701    -2.806461437
 C       -9.133347828    13.696942712    -3.235445607
 C      -10.105709841    12.969432181    -2.515665129
 C       -9.717166892    12.287903975    -1.351706566
 C       -8.394857287    12.334233192    -0.922590330
 N      -11.432548261    12.984647248    -2.998446608
 C      -11.590491419    12.686859126    -4.438596796
 C      -12.462519153    12.365934483    -2.152023856
 C      -10.697977790    11.566902268    -5.002271102
 C      -11.227894435    10.139533928    -4.764899610
 N      -10.412334516     9.285007747    -3.881883655
 C       -9.015460288     9.315843777    -4.024697701
 C       -8.455639634     9.446682490    -5.313836872
 C       -7.080542361     9.479362922    -5.478600037
 C       -6.213354615     9.340058587    -4.384952270
 C       -6.770705605     9.186025454    -3.113251786
 C       -8.147193962     9.169993925    -2.926615908
 C      -10.941513022     9.125365077    -2.521579906
 C       -4.768991476     9.382571407    -4.619319329
 C       -3.842308948     9.261647975    -3.659861345
Si       -2.031166118     9.311827787    -3.930313559
 C       -1.676830570     9.554359172    -5.725961434
 C       -0.955357123     8.614245899    -6.468931497
 C       -0.704174729     8.826216388    -7.823189553
 C       -1.170066916     9.979188964    -8.467001355
 C       -1.892272159    10.917071074    -7.722389070
 C       -2.143268240    10.708898988    -6.367806306
 C       -0.881593989    10.156051737    -9.886428155
 C       -1.267464106    11.213479612   -10.620434027
 C       -0.978332628    11.389203552   -12.039962793
 C       -0.256153612    10.451124224   -12.784077499
 C       -0.002448725    10.658915953   -14.138722471
 C       -0.468551413    11.811881849   -14.782167171
 C       -1.192095709    12.751812025   -14.039985691
 C       -1.442870027    12.541999486   -12.685545144
Si       -0.116250624    12.058322500   -16.577330890
 C       -0.789459785    10.596917287   -17.528488115
 C       -0.922173951    13.624437733   -17.203553376
 C        1.734145414    12.178247394   -16.811252563
 C       -1.282278755    10.727764308    -2.973741724
 C       -1.312814795     7.700786141    -3.317005623
 C       -3.668591389    13.237380617     2.066593193
 C       -2.746690848    13.559135698    -0.837079612
 C       -0.605562602    -0.891697108    -1.527253823
 C       -0.631318097    -0.861570294     1.532916639
 H        1.184375487     2.648870599     0.775785988
 H        0.307604592     4.911853664     0.762255547
 H       -3.458341215     3.489627620    -0.762391975
 H       -2.619007280     1.206829437    -0.771251860
 H       -3.229866315     5.779659801    -0.379978147
 H       -0.505163757     6.763110838     0.717296594
 H       -0.277321660     9.058319877     1.087869462
 H       -1.120812346    11.341335834     1.085905988
 H       -4.943001998     9.879071581    -0.397090701
 H       -4.048376308     7.616925626    -0.406665035
 H       -6.161461666    11.868831636     0.497656206
 H       -5.398418077    13.676106218    -1.932765269
 H       -7.077753161    14.275189005    -3.380135055
 H       -9.423498460    14.254007399    -4.122738430
 H      -10.441253552    11.731013092    -0.766243158
 H       -8.117679409    11.805783330    -0.009205720
 H      -13.457970041    12.660263646    -2.529502667
 H      -12.384743765    12.766491667    -1.125009781
 H      -12.416105025    11.267805467    -2.111493374
 H      -12.037632728     9.012972763    -2.554257401
 H      -10.684977764     9.962026630    -1.849895244
 H      -10.541655192     8.188972523    -2.087338222
 H       -9.103387143     9.524210386    -6.181485000
 H       -6.668258572     9.601272915    -6.481210523
 H       -6.119627516     9.084033486    -2.243652280
 H       -8.536259082     9.071794450    -1.918905605
 H       -4.509634593     9.519660575    -5.678901527
 H       -4.125239998     9.123231051    -2.604175584
 H       -0.569955570     7.694009212    -6.020862396
 H       -0.140442343     8.083637310    -8.384454046
 H       -2.264952073    11.821338703    -8.199378383
 H       -2.713261284    11.477538023    -5.836037819
 H       -0.307587915     9.343059337   -10.341131346
 H       -1.841364072    12.026748559   -10.166845081
 H        0.115661596     9.545884187   -12.307152187
 H        0.568975503     9.890230799   -14.666772271
 H       -1.580509784    13.669727703   -14.489155099
 H       -2.006910967    13.285526730   -12.125449478
 H      -12.659469183    12.470983202    -4.651020635
 H      -11.360920871    13.638417841    -4.979373345
 H      -10.572548964    11.731219450    -6.090487877
 H       -9.667780940    11.662857663    -4.594868792
 H      -12.267789240    10.175186407    -4.374466753
 H      -11.293060328     9.603039819    -5.743759623
 H        2.267781655    -1.027982770    -0.070823975
 H        2.279057824     0.448663662     0.921976785
 H        2.270128321     0.570081266    -0.857615850
 H       -0.631827332    10.716848555   -18.614722118
 H       -1.875305697    10.477415914   -17.360331859
 H       -0.302941405     9.653924619   -17.222733664
 H       -2.017325646    13.600386497   -17.061580551
 H       -0.534135047    14.516942466   -16.681247183
 H       -0.732324727    13.765546471   -18.282683799
 H        2.247514911    11.268694943   -16.452110033
 H        1.997544493    12.313070554   -17.874972881
 H        2.152977182    13.034846235   -16.252345522
 H       -1.743333624    11.693086987    -3.244499134
 H       -1.420733488    10.581358175    -1.884897302
 H       -0.197537160    10.808603995    -3.162379969
 H       -1.750147554     6.832556745    -3.841437958
 H       -0.218271943     7.664399793    -3.452717285
 H       -1.513881275     7.564960752    -2.235999803
 H       -4.229120051    12.617806343     2.789566485
 H       -2.625598737    13.299443397     2.423193510
 H       -4.095432748    14.255929509     2.103301115
 H       -2.804875238    13.161516033    -1.868245234
 H       -3.097799244    14.606034458    -0.860198469
 H       -1.681051063    13.572907004    -0.548147294
 H       -0.298714460    -0.361433256    -2.447217444
 H       -0.195165157    -1.915685957    -1.581556882
 H       -1.706302933    -0.975142635    -1.543980685
 H       -0.285314797    -0.352875271     2.450866515
 H       -1.735641777    -0.875430520     1.561264773
 H       -0.282424637    -1.908158567     1.579394179

