139   

Si        0.000000000     0.000000000     0.000000000
 C        1.869372757     0.000000000     0.000000000
 C       -0.641857791     1.730859420     0.000000000
 C        0.075552060     2.759890638    -0.619406264
 C       -0.412380364     4.066372524    -0.617463327
 C       -1.630188607     4.373325164    -0.004287968
 C       -2.349921271     3.340423098     0.610793646
 C       -1.864150957     2.035337256     0.612305929
 C       -2.181494790     5.723965665     0.023759566
 C       -1.596791166     6.803290281    -0.523275265
 C       -2.154012715     8.151806583    -0.491504773
 C       -3.373975912     8.446935094     0.125302596
 C       -3.870864024     9.748585815     0.133214619
 C       -3.159608257    10.786280907    -0.482867013
 C       -1.939831716    10.493684911    -1.101573363
 C       -1.443092758     9.191475746    -1.103558458
Si       -3.853705875    12.495659274    -0.449115692
 C       -3.987273890    13.082069859     1.280959209
 C       -3.631965411    12.370701894     2.359296080
 C       -3.743353931    12.850110415     3.737643593
 C       -3.336023336    12.005959135     4.782210726
 C       -3.420491048    12.410755212     6.103594849
 C       -3.884148328    13.704910382     6.425403931
 C       -4.294578081    14.551394045     5.380169929
 C       -4.241147733    14.114185578     4.062032233
 N       -3.958661097    14.087185289     7.779210940
 C       -2.818737822    13.697113852     8.629987576
 C       -4.450818265    15.445062655     8.060150774
 C       -1.446625119    14.133851880     8.075842798
 C       -0.412323728    14.338005951     9.198369415
 N       -0.207673504    15.751245534     9.596708880
 C       -1.412799563    16.402116729     9.983773829
 C       -2.052039406    15.935752098    11.149337441
 C       -3.228606513    16.526624369    11.579968047
 C       -3.788905161    17.609712533    10.884873817
 C       -3.137350484    18.081682728     9.743242119
 C       -1.957014283    17.496195602     9.297352006
 C        0.628341236    16.487997785     8.631706623
 C       -5.034888092    18.199642827    11.381110717
 C       -5.653345913    19.232894942    10.796054363
Si       -7.210129368    20.012104251    11.368774391
 C       -8.439091613    19.842459867    10.002511130
 C       -8.258797990    18.869032851     9.011903214
 C       -9.182357010    18.735861853     7.978381736
 C      -10.309885930    19.564927182     7.913564649
 C      -10.488684894    20.532142883     8.907057106
 C       -9.564463900    20.670264707     9.942279001
 C      -11.248522634    19.386115377     6.810704156
 C      -12.364345003    20.112603420     6.628436991
 C      -13.301100130    19.931132572     5.524160140
 C      -13.118836184    18.962906146     4.532730519
 C      -14.039363313    18.823792959     3.494720414
 C      -15.161243904    19.656589295     3.420755270
 C      -15.345819867    20.627605479     4.412865300
 C      -14.428446702    20.759801313     5.452556106
Si      -16.379362716    19.471215546     2.045643163
 C      -15.510790748    18.879594697     0.499276751
 C      -17.666873736    18.220927737     2.565342317
 C      -17.199313008    21.112860742     1.688355791
 C       -7.885236812    19.177279587    12.894680879
 C       -6.869023169    21.814117767    11.717598059
 C       -2.756116772    13.680484534    -1.389037969
 C       -5.555756318    12.473539413    -1.219894880
 C       -0.630842445    -0.857118297    -1.535992641
 C       -0.601657758    -0.905816263     1.521158164
 H        1.033382183     2.582098765    -1.116152813
 H        0.166929052     4.849755566    -1.103005370
 H       -3.301206044     3.557246172     1.093595149
 H       -2.470208637     1.272399105     1.108787652
 H       -3.142933911     5.813464489     0.538786455
 H       -0.636332203     6.715937371    -1.039249640
 H       -3.947051918     7.656926871     0.607470239
 H       -4.829884154     9.918182929     0.633641985
 H       -1.341602484    11.263708760    -1.596065479
 H       -0.491410206     8.983607375    -1.588835109
 H       -4.395255489    14.099798506     1.377162269
 H       -3.217946469    11.353892554     2.288348324
 H       -2.955311748    11.009910460     4.552061490
 H       -3.130144601    11.726018424     6.895558823
 H       -4.658301129    15.553270906     5.585719395
 H       -4.578737672    14.783941937     3.270194250
 H       -4.541544580    15.588208030     9.153272157
 H       -5.464708108    15.562052340     7.637882700
 H       -3.799028816    16.244566577     7.671838607
 H        1.618445712    16.000734317     8.583417594
 H        0.794795192    17.515829895     8.998870244
 H        0.215592321    16.536020225     7.612096086
 H       -1.609967535    15.115916672    11.712132002
 H       -3.716496505    16.152307210    12.480284692
 H       -3.549943196    18.926541732     9.189155803
 H       -1.476070973    17.885703430     8.404458619
 H       -5.418116702    17.710474749    12.285723876
 H       -5.238309500    19.705393758     9.889889913
 H       -7.399340220    18.190035700     9.014072986
 H       -9.025069806    17.975298670     7.215113038
 H      -11.356794105    21.188291146     8.879827122
 H       -9.757017097    21.444788983    10.689618703
 H      -10.981464360    18.590724353     6.108201158
 H      -12.633012725    20.907483651     7.330460658
 H      -12.252014092    18.304949325     4.564304196
 H      -13.843259694    18.046860639     2.750389587
 H      -16.202902501    21.306651103     4.407266570
 H      -14.590879513    21.518978975     6.215546393
 H       -2.982809387    14.123170431     9.646721278
 H       -2.847440475    12.591240987     8.758600632
 H       -1.082717150    13.384338496     7.348807899
 H       -1.560082744    15.064970693     7.487376739
 H       -0.700142799    13.770192776    10.111064228
 H        0.574404116    13.926282959     8.889279002
 H        2.267808527    -1.027635341     0.072707261
 H        2.269289938     0.572671545     0.856446202
 H        2.279325541     0.448483825    -0.921784713
 H      -16.207480765    18.832932253    -0.356532786
 H      -15.081696520    17.870895713     0.630702840
 H      -14.686002270    19.559777853     0.219306694
 H      -17.208842692    17.239317946     2.783673691
 H      -18.198574283    18.545592575     3.477797726
 H      -18.422281245    18.068727519     1.774562051
 H      -16.449626853    21.892442392     1.461191688
 H      -17.876325942    21.040390815     0.818639661
 H      -17.799925205    21.466168686     2.544669922
 H       -8.087448871    18.106021555    12.710706731
 H       -7.177959120    19.246470338    13.740323917
 H       -8.836210264    19.638633965    13.217160876
 H       -6.534335462    22.344508158    10.807494916
 H       -7.769100597    22.332540767    12.092330279
 H       -6.076746418    21.930593306    12.479536783
 H       -1.750442318    13.742696114    -0.934934659
 H       -2.633967841    13.369869377    -2.441605622
 H       -3.178832575    14.701118486    -1.391685789
 H       -6.243292909    11.813759850    -0.660497882
 H       -6.004753985    13.482053312    -1.237928128
 H       -5.516797647    12.105608712    -2.261024193
 H       -0.286102077    -0.344906587    -2.452309136
 H       -0.281486500    -1.903301082    -1.586017609
 H       -1.735327739    -0.871539855    -1.563282775
 H       -0.313872817    -0.370809595     2.444318049
 H       -1.700282992    -1.014002628     1.526531285
 H       -0.170246658    -1.921075578     1.577504914

