139   

Si        0.000000000     0.000000000     0.000000000
 C        1.869186745     0.000000000     0.000000000
 C       -0.655434238     1.725607045     0.000000000
 C        0.179158981     2.825631824    -0.218411101
 C       -0.338054762     4.121233282    -0.214032506
 C       -1.699511912     4.346286607     0.004778196
 C       -2.535331675     3.242109438     0.220479588
 C       -2.022124530     1.948080601     0.217197006
 C       -2.285555221     5.682615575     0.018309022
 C       -1.598730310     6.821705314    -0.173590052
 C       -2.186795743     8.157334819    -0.159666965
 C       -1.353301125     9.263251196    -0.374557493
 C       -1.869834711    10.556518151    -0.370143611
 C       -3.236761588    10.772871454    -0.157250054
 C       -4.071196361     9.671048297     0.057129274
 C       -3.549542267     8.377896140     0.058708299
Si       -3.927818777    12.483873227    -0.150138131
 C       -5.728672751    12.377933292    -0.470078862
 C       -6.691244297    12.807343285     0.356522699
 C       -8.123627629    12.708077113     0.071251326
 C       -9.039896908    13.193536768     1.015532847
 C      -10.405160549    13.123495416     0.794066917
 C      -10.907164464    12.599545486    -0.417805183
 C       -9.987866812    12.111478596    -1.366525490
 C       -8.623693914    12.148806910    -1.107631519
 N      -12.292577887    12.533726939    -0.630612273
 C      -13.134852900    13.563608334     0.002180887
 C      -12.750574311    12.115977214    -1.963448007
 C      -12.784660253    15.013511615    -0.374760620
 C      -13.406179941    15.476607638    -1.703806765
 N      -14.802569438    15.939094546    -1.613620835
 C      -15.084908145    16.985690249    -0.720717073
 C      -14.112469628    17.980313511    -0.475766708
 C      -14.376630536    19.018322384     0.402094844
 C      -15.623691458    19.136593569     1.033360333
 C      -16.594855115    18.168585222     0.766475159
 C      -16.342445337    17.112311698    -0.099911128
 C      -15.800245756    14.865260448    -1.726652990
 C      -15.846283420    20.254155148     1.951517158
 C      -16.990364631    20.474579023     2.612872740
Si      -17.277756177    21.870708134     3.763959229
 C      -15.762650805    22.918278337     3.872140198
 C      -15.075943674    23.103208056     5.076615677
 C      -13.934352793    23.901190941     5.123579596
 C      -13.449689301    24.528341076     3.969097108
 C      -14.137271880    24.340565459     2.765955632
 C      -15.280864467    23.546101148     2.716292319
 C      -12.250589243    25.354321568     4.068121133
 C      -11.687858886    26.010162565     3.038978624
 C      -10.489014561    26.836681749     3.135114773
 C       -9.798295362    27.027449319     4.335181348
 C       -8.656305750    27.826224626     4.380826544
 C       -8.173225089    28.445516362     3.222882979
 C       -8.862965736    28.254960670     2.019220203
 C      -10.008146841    27.463356690     1.978048225
Si       -6.660646632    29.502923752     3.285766008
 C       -5.487652059    28.860094234     4.591945760
 C       -5.793160229    29.482160163     1.629863104
 C       -7.180831634    31.247855840     3.704959337
 C      -18.689042404    22.912651402     3.120705107
 C      -17.726631846    21.171823472     5.437827501
 C       -3.563550761    13.265061175     1.505982238
 C       -3.155322225    13.496134250    -1.517580538
 C       -0.625039040    -0.869985476    -1.531129181
 C       -0.608038951    -0.884041384     1.530944146
 H        1.252251548     2.713348722    -0.395819668
 H        0.334056241     4.960601830    -0.384016594
 H       -3.599280920     3.395075384     0.392778895
 H       -2.722957207     1.126697276     0.390914069
 H       -3.363954767     5.706822400     0.202008890
 H       -0.520527045     6.798229236    -0.357179250
 H       -0.289212701     9.112830909    -0.546073533
 H       -1.171833771    11.380262872    -0.541801498
 H       -5.147170398     9.782692581     0.229897488
 H       -4.218720362     7.536634161     0.230761369
 H       -5.975338478    11.916867666    -1.440089672
 H       -6.475697887    13.272583295     1.327813663
 H       -8.674462115    13.625540348     1.948325931
 H      -11.086967207    13.478122168     1.561986008
 H      -10.328140247    11.693680663    -2.307976979
 H       -7.934856458    11.747414829    -1.853188509
 H      -13.852258045    12.105627889    -2.001525886
 H      -12.417242432    11.077085966    -2.149030620
 H      -12.376492495    12.756389151    -2.779336622
 H      -15.459029480    14.102043816    -2.445076620
 H      -16.737800869    15.288425206    -2.134964740
 H      -16.026534077    14.369593046    -0.768195048
 H      -13.146898118    17.936173880    -0.971825729
 H      -13.602690738    19.763760779     0.593929795
 H      -17.574110411    18.237138897     1.242565761
 H      -17.127165859    16.384972117    -0.277396087
 H      -14.967223571    20.908255834     2.053892344
 H      -17.854788887    19.803265162     2.498061678
 H      -15.404669078    22.636223759     6.008887824
 H      -13.415172953    24.035123740     6.070692827
 H      -13.782148775    24.817748299     1.854161955
 H      -15.777775023    23.438630541     1.746648072
 H      -11.816255844    25.412696405     5.070511390
 H      -12.122824856    25.952071000     2.036723628
 H      -10.149831426    26.551807833     5.249059076
 H       -8.161293248    27.940126964     5.349304098
 H       -8.532519390    28.712872884     1.082743685
 H      -10.531885217    27.329970437     1.033189426
 H      -14.199460448    13.345334025    -0.232518647
 H      -13.048798068    13.432949947     1.108232459
 H      -13.104399821    15.691377237     0.443345058
 H      -11.682553630    15.129830394    -0.426734054
 H      -12.803448440    16.317110624    -2.125909056
 H      -13.348018872    14.668079624    -2.464591752
 H        2.266957944    -1.028889466     0.060350423
 H        2.272207630     0.561053912     0.862260875
 H        2.276773813     0.457082914    -0.919013177
 H       -4.540627573    29.428628016     4.593005687
 H       -5.236979787    27.798192430     4.416263213
 H       -5.919873204    28.937456638     5.604854302
 H       -5.545956608    28.450418839     1.320634318
 H       -6.415665306    29.929040733     0.835133479
 H       -4.847663070    30.052161002     1.667434411
 H       -7.699299512    31.290329728     4.679718073
 H       -6.310790108    31.925576396     3.759177782
 H       -7.874372034    31.653818028     2.946637579
 H      -18.466917502    23.318313429     2.117159840
 H      -19.621701506    22.326877734     3.043293431
 H      -18.887010069    23.770921397     3.787970232
 H      -16.919358012    20.530415810     5.835814006
 H      -17.914542562    21.974006601     6.173201483
 H      -18.639989926    20.553085100     5.382104899
 H       -4.014557031    12.685080549     2.331973175
 H       -2.476377816    13.314326208     1.696136417
 H       -3.959068873    14.294740201     1.562363890
 H       -3.283994224    13.008938885    -2.500988776
 H       -3.618735081    14.497476324    -1.581094475
 H       -2.072969137    13.640282004    -1.356155736
 H       -0.278457265    -0.363011718    -2.449943275
 H       -0.271414092    -1.915110805    -1.573292001
 H       -1.728990987    -0.888715717    -1.562817597
 H       -0.273678660    -0.367321530     2.449068951
 H       -1.710531738    -0.933678768     1.562974454
 H       -0.227002646    -1.919557509     1.574551492

