139   

Si        0.000000000     0.000000000     0.000000000
 C        1.869435212     0.000000000     0.000000000
 C       -0.630554752     1.735461412     0.000000000
 C        0.083659570     2.750855718    -0.645535329
 C       -0.390711349     4.061856701    -0.646704820
 C       -1.591853517     4.387498575    -0.010147012
 C       -2.308270162     3.368927719     0.631197725
 C       -1.835646176     2.058708080     0.635771546
 C       -2.125563968     5.745378877     0.013553774
 C       -1.533391102     6.805898065    -0.561101685
 C       -2.060409387     8.165881336    -0.541784241
 C       -3.260372175     8.504051853     0.091404042
 C       -3.724835311     9.818989110     0.083569234
 C       -2.991054791    10.825878462    -0.552157666
 C       -1.789159933    10.489706134    -1.187410177
 C       -1.332626670     9.174365056    -1.185821384
Si       -3.596487680    12.571730277    -0.569056038
 C       -2.234928818    13.579233300    -1.265847910
 C       -2.305982129    14.327701922    -2.373818023
 C       -1.187109316    15.117772570    -2.892336930
 C       -1.373159230    15.867218234    -4.064411895
 C       -0.345793015    16.629651551    -4.593349232
 C        0.918742959    16.646400965    -3.968420987
 C        1.104109909    15.911558627    -2.787235603
 C        0.050457801    15.180521287    -2.248243933
 N        1.933670853    17.442839921    -4.550810025
 C        2.192103808    17.165352958    -5.983146002
 C        3.165888916    17.610978911    -3.762494233
 C        2.115696118    15.690464519    -6.419508067
 C        3.121235219    14.793664827    -5.676122909
 N        3.093352072    13.383675769    -6.096733363
 C        1.971048017    12.601066158    -5.768050906
 C        1.047698022    13.016517739    -4.789466197
 C       -0.052949995    12.235417711    -4.476212183
 C       -0.242892275    10.979303782    -5.066311604
 C        0.692240168    10.549321615    -6.012498591
 C        1.780807275    11.337412185    -6.363572969
 C        3.670913061    13.169329048    -7.435079423
 C       -1.424584719    10.197923930    -4.697111952
 C       -1.712946571     8.987747226    -5.192686938
Si       -3.181545092     7.983468313    -4.752912543
 C       -4.147668603     7.693652042    -6.300013946
 C       -4.065872253     8.604509222    -7.360822769
 C       -4.791460905     8.392324183    -8.530107048
 C       -5.622315612     7.272102779    -8.664640237
 C       -5.705505999     6.367835706    -7.602057096
 C       -4.976830500     6.575317240    -6.431285304
 C       -6.362539242     7.093504175    -9.909495469
 C       -7.187631641     6.065056179   -10.169147769
 C       -7.926999856     5.888298812   -11.414787777
 C       -7.843007916     6.793266568   -12.476712824
 C       -8.567396268     6.585377183   -13.649906525
 C       -9.386814669     5.460318287   -13.791145794
 C       -9.471897521     4.551236729   -12.729227737
 C       -8.753201520     4.765532535   -11.555660247
Si      -10.346686280     5.183170151   -15.343483322
 C       -9.446864143     5.938417728   -16.798054092
 C      -10.556066313     3.350338172   -15.647895593
 C      -12.022147830     5.987783082   -15.149677807
 C       -2.599234843     6.367866252    -4.022219183
 C       -4.291510479     8.864597877    -3.540451217
 C       -5.132713394    12.662465102    -1.624153874
 C       -3.956143957    13.152425824     1.166220213
 C       -0.632579107    -0.852449796    -1.537693349
 C       -0.605516764    -0.905306274     1.519357858
 H        1.028482328     2.558024947    -1.161478558
 H        0.186532373     4.833937099    -1.153106885
 H       -3.246010183     3.600325638     1.133046545
 H       -2.437502767     1.307030970     1.153770696
 H       -3.074945608     5.855900404     0.545129797
 H       -0.580812682     6.693654852    -1.089412717
 H       -3.844650252     7.737767949     0.596965111
 H       -4.670527845    10.022794246     0.592022798
 H       -1.172594024    11.233391701    -1.705551268
 H       -0.400806222     8.931863422    -1.696845362
 H       -1.307847882    13.531306613    -0.670151933
 H       -3.213668257    14.403174884    -2.986384251
 H       -2.339922463    15.850033792    -4.568827207
 H       -0.511103736    17.223611771    -5.488954377
 H        2.063016340    15.905954640    -2.278100929
 H        0.212714496    14.630415600    -1.319576572
 H        3.778571021    18.405216530    -4.224145821
 H        3.780374629    16.701755143    -3.675745559
 H        2.905624365    17.963688708    -2.748077602
 H        4.465156885    13.906097302    -7.635789789
 H        2.925093790    13.233097625    -8.244142682
 H        4.145205002    12.170987293    -7.466480069
 H        1.170997925    13.970474199    -4.282751836
 H       -0.774227633    12.608665700    -3.743659356
 H        0.571156804     9.576285084    -6.490800307
 H        2.483178471    10.964625195    -7.101449232
 H       -2.066587803    10.705185502    -3.962469829
 H       -1.050292720     8.500400758    -5.925116346
 H       -3.433261127     9.497194204    -7.309955665
 H       -4.711510114     9.107459004    -9.346475847
 H       -6.343047046     5.489544687    -7.681626263
 H       -5.079417969     5.832567984    -5.635243723
 H       -6.201058243     7.879139402   -10.653679622
 H       -7.349343823     5.279107829    -9.425741506
 H       -7.208065675     7.673738450   -12.394510904
 H       -8.462033390     7.329891439   -14.443832777
 H      -10.094872087     3.654272346   -12.782438723
 H       -8.834146815     4.048369582   -10.740842542
 H        1.433750045    17.750747324    -6.558262704
 H        3.180757126    17.590111505    -6.261626379
 H        1.088440155    15.298301943    -6.265763278
 H        2.287936476    15.627365816    -7.510293604
 H        4.157965998    15.173364379    -5.820793552
 H        2.935845759    14.830707403    -4.576545357
 H        2.268337068    -1.028472519     0.056836611
 H        2.269356754     0.559548025     0.865109666
 H        2.279611729     0.462745787    -0.914625512
 H       -9.976958175     5.733958564   -17.745158752
 H       -8.425775221     5.526697595   -16.893519995
 H       -9.357043271     7.034400746   -16.700447170
 H       -9.578570934     2.835527587   -15.674953993
 H      -11.163833030     2.870797108   -14.860917376
 H      -11.057632921     3.160940804   -16.613496034
 H      -11.927780168     7.072863302   -14.963866136
 H      -12.639681446     5.855888814   -16.055229104
 H      -12.579304555     5.556349468   -14.298732387
 H       -1.958153152     5.806652935    -4.724157223
 H       -2.012773363     6.543467878    -3.100043622
 H       -3.446755093     5.715674137    -3.747181039
 H       -4.624967621     9.842626936    -3.929463781
 H       -5.194414241     8.270820649    -3.315180603
 H       -3.768176831     9.046345941    -2.580596484
 H       -4.937077856    12.311835029    -2.654951558
 H       -5.940804442    12.031706422    -1.212211808
 H       -5.519235391    13.694998582    -1.688237796
 H       -3.067135957    13.061515021     1.816619855
 H       -4.267094994    14.212778889     1.178371807
 H       -4.766279858    12.563226051     1.630987221
 H       -0.287311229    -0.339229648    -2.453279612
 H       -0.285185902    -1.899218858    -1.589968959
 H       -1.737063835    -0.864813210    -1.565095081
 H       -0.315652412    -0.373614765     2.443820938
 H       -1.704631871    -1.008874917     1.524140433
 H       -0.178486281    -1.922573389     1.574412972

