139   

Si        0.000000000     0.000000000     0.000000000
 C        1.869318994     0.000000000     0.000000000
 C       -0.650040234     1.728001597     0.000000000
 C        0.176966647     2.816438107     0.293784632
 C       -0.330892454     4.115582721     0.289235395
 C       -1.676101970     4.355701532    -0.002853259
 C       -2.504582050     3.263216462    -0.292802780
 C       -2.000173194     1.965549114    -0.290434015
 C       -2.250878442     5.696999021    -0.019289704
 C       -1.566978114     6.824738331     0.238545792
 C       -2.139886131     8.166842776     0.222614822
 C       -3.485440556     8.408744246    -0.069398156
 C       -3.991060931     9.708195842    -0.073399477
 C       -3.156970140    10.795321998     0.208106037
 C       -1.808610066    10.556977769     0.500854438
 C       -1.308634102     9.257184913     0.510877005
Si       -3.820955798    12.516986545     0.204145844
 C       -2.419886865    13.674589016    -0.026410421
 C       -2.055059956    14.634332995     0.833897442
 C       -0.928636163    15.544471153     0.619813821
 C       -0.641791785    16.511946897     1.593840544
 C        0.412594717    17.396583793     1.439169357
 C        1.198370620    17.374676567     0.265561692
 C        0.910920287    16.403621476    -0.713018313
 C       -0.121378908    15.494666160    -0.519679979
 N        2.263867269    18.276417561     0.121352495
 C        2.136187151    19.598095146     0.759739928
 C        2.959067966    18.295954600    -1.173702692
 C        0.901884089    20.413212118     0.337939466
 C        1.069486790    21.154188261    -0.999870836
 N        1.819588520    22.420458893    -0.927165822
 C        1.359704130    23.398372765    -0.030451498
 C       -0.025102688    23.524240150     0.217379946
 C       -0.495286449    24.483291915     1.098713202
 C        0.378502420    25.381382501     1.729557170
 C        1.744988173    25.274719209     1.459822247
 C        2.236225156    24.308081979     0.591124838
 C        3.274523197    22.269861956    -1.071404921
 C       -0.174704715    26.374022100     2.651605954
 C        0.555306217    27.282470732     3.312494415
Si       -0.126564568    28.529276084     4.468712494
 C       -1.958761988    28.344795068     4.583707949
 C       -2.829031803    29.365695374     4.187371501
 C       -4.208661390    29.196053888     4.286462865
 C       -4.751061406    28.002094210     4.777681501
 C       -3.878999982    26.982006473     5.170734045
 C       -2.498941942    27.149722871     5.075730765
 C       -6.202046632    27.872070600     4.862483042
 C       -6.847355322    26.784297524     5.316608254
 C       -8.298400271    26.654296668     5.401401922
 C       -9.171047907    27.673056914     5.008899110
 C      -10.551890757    27.505916658     5.107148868
 C      -11.091961296    26.309841337     5.592085491
 C      -10.219589627    25.287024413     5.984718458
 C       -8.840597661    25.459711463     5.893195198
Si      -12.920556630    26.088694569     5.722118542
 C      -13.780448747    27.078438683     4.389412071
 C      -13.363871047    24.284233945     5.515913746
 C      -13.466543604    26.685891181     7.406236730
 C        0.617192924    28.263751278     6.162306528
 C        0.335373206    30.227603074     3.841287516
 C       -5.003020871    12.747704863    -1.224427147
 C       -4.707275094    12.815281405     1.820088914
 C       -0.605831785    -0.886667882    -1.530297360
 C       -0.628237994    -0.866718364     1.531462518
 H        1.237206877     2.692147334     0.530823029
 H        0.335180992     4.945835100     0.517850361
 H       -3.555681020     3.428078494    -0.522613259
 H       -2.694414259     1.153646477    -0.524226747
 H       -3.316473214     5.735163836    -0.263817799
 H       -0.501288736     6.786010030     0.483480168
 H       -4.152375655     7.579118010    -0.296085538
 H       -5.051557762     9.835173103    -0.307056705
 H       -1.112103847    11.370903114     0.729412477
 H       -0.258395529     9.090263180     0.743570899
 H       -1.873964051    13.519952704    -0.971144501
 H       -2.581329740    14.813267219     1.781012258
 H       -1.250997602    16.564158657     2.497176921
 H        0.628802844    18.109383538     2.230048403
 H        1.492875087    16.344374785    -1.626608827
 H       -0.310453806    14.740997868    -1.286279921
 H        3.767425186    19.045529709    -1.160310617
 H        2.296057736    18.509501430    -2.028293291
 H        3.440377273    17.312875763    -1.337636598
 H        3.503519987    21.479415843    -1.804993086
 H        3.791624906    22.033764303    -0.126830395
 H        3.693998649    23.210236987    -1.477374537
 H       -0.732189093    22.867096412    -0.281206445
 H       -1.567491458    24.549935491     1.291608448
 H        2.446909491    25.961420177     1.935249501
 H        3.305041480    24.262766792     0.412403749
 H       -1.268535565    26.307616090     2.750170162
 H        1.648091393    27.334116627     3.192571999
 H       -2.464265433    30.317632038     3.791971811
 H       -4.869752482    30.002854726     3.975601247
 H       -4.274907497    26.044242688     5.556317006
 H       -1.866828441    26.316914122     5.399987201
 H       -6.760744550    28.748395756     4.520607360
 H       -6.289343430    25.907741213     5.658927303
 H       -8.776568483    28.611245813     4.622465123
 H      -11.182885487    28.339800419     4.787053027
 H      -10.583625327    24.330788328     6.370489852
 H       -8.179176484    24.653715071     6.205818475
 H        2.114964952    19.433608154     1.864575737
 H        3.067282143    20.175955918     0.570875996
 H        0.017405777    19.746296862     0.274868227
 H        0.655737019    21.140498440     1.139009831
 H        1.555143245    20.494445380    -1.751419593
 H        0.062717606    21.388448175    -1.424066784
 H        2.267421576    -1.028192981    -0.069044411
 H        2.277613331     0.449639303     0.922311379
 H        2.271349165     0.568403159    -0.857940955
 H      -14.869473472    26.893890493     4.394912454
 H      -13.403513765    26.809593058     3.385918772
 H      -13.629352838    28.163892216     4.522943368
 H      -12.980440201    23.885171750     4.559355342
 H      -12.946345063    23.663707252     6.327936001
 H      -14.458946427    24.139443773     5.520143531
 H      -13.213725496    27.750886738     7.557089161
 H      -14.557752665    26.579500908     7.537003273
 H      -12.975375187    26.114405034     8.214328225
 H        0.397787284    27.251113283     6.545735759
 H        1.714799025    28.381902097     6.144763127
 H        0.213982887    28.988849062     6.892201935
 H       -0.058263585    30.401235176     2.823114088
 H       -0.061009459    31.022430877     4.497533015
 H        1.431954642    30.352830703     3.794400061
 H       -4.523583889    12.497091208    -2.187991716
 H       -5.896769505    12.108317163    -1.120664409
 H       -5.348878369    13.795345464    -1.289209655
 H       -4.026755463    12.686784501     2.681692068
 H       -5.124353926    13.836730678     1.869080342
 H       -5.543825950    12.106427324     1.955344517
 H       -0.282869760    -0.363319765    -2.448669294
 H       -0.211971314    -1.917227894    -1.578581754
 H       -1.707679455    -0.950732248    -1.556560037
 H       -0.283063902    -0.358233856     2.449979964
 H       -1.732363391    -0.884153663     1.560652049
 H       -0.275801150    -1.912134300     1.576261816

