139   

Si        0.000000000     0.000000000     0.000000000
 C        1.869043686     0.000000000     0.000000000
 C       -0.655507605     1.725942505     0.000000000
 C        0.194797352     2.833555028     0.063772618
 C       -0.324450003     4.128369002     0.062393724
 C       -1.702997241     4.344988370    -0.004915758
 C       -2.554370635     3.233407803    -0.068510620
 C       -2.039260773     1.940130844    -0.064800923
 C       -2.290722590     5.680737858    -0.009041904
 C       -1.588444080     6.824986532     0.050039601
 C       -2.175327276     8.161006533     0.045962535
 C       -1.324086580     9.271212576     0.112107165
 C       -1.838970786    10.566077203     0.110955856
 C       -3.219672393    10.779726787     0.048064312
 C       -4.073266542     9.671264052    -0.019092400
 C       -3.555091857     8.377896275    -0.023140805
Si       -3.940864847    12.477533563     0.044324710
 C       -4.638754258    12.823671246    -1.616103044
 C       -4.600450465    11.943539516    -2.625157945
 C       -5.144318454    12.177818637    -3.964449101
 C       -5.024661241    11.151860022    -4.914705161
 C       -5.518520786    11.311047366    -6.199264585
 C       -6.174403332    12.502985815    -6.556525258
 C       -6.296852397    13.531364389    -5.614512348
 C       -5.771374963    13.369506394    -4.335540405
 N       -6.653210242    12.585586499    -7.900604199
 C       -7.828455794    11.718713423    -8.141548243
 C       -6.839802146    13.954291682    -8.413055154
 C       -9.127327033    12.207567352    -7.471972125
 C       -9.957453254    11.069397494    -6.850769215
 N       -9.542717427    10.644039938    -5.499339222
 C       -9.378368887    11.653307207    -4.533663434
 C      -10.205479558    12.797184961    -4.570340561
 C      -10.056599285    13.800121682    -3.626837148
 C       -9.121849005    13.686687650    -2.588377349
 C       -8.330174496    12.536513188    -2.530944535
 C       -8.459450628    11.526320548    -3.474630648
 C       -8.549328086     9.558298035    -5.498519388
 C       -9.011620161    14.779572086    -1.622839284
 C       -8.161124217    14.794423389    -0.588007763
Si       -8.024366558    16.163517636     0.619954899
 C       -9.222895696    17.499677964     0.195892865
 C       -8.800207821    18.792806699    -0.129535092
 C       -9.729863270    19.781576927    -0.445639203
 C      -11.101934027    19.501381752    -0.448525703
 C      -11.521773223    18.207456202    -0.124489567
 C      -10.594770759    17.217268727     0.194663014
 C      -12.036703577    20.569881934    -0.786170121
 C      -13.373143572    20.433505357    -0.822665137
 C      -14.308424874    21.501590538    -1.160226244
 C      -13.890555681    22.795299676    -1.484312051
 C      -14.819449351    23.786077945    -1.800792660
 C      -16.189147280    23.501943881    -1.809388927
 C      -16.610274338    22.205865861    -1.485955008
 C      -15.681034720    21.220371947    -1.162263412
Si      -17.422893233    24.810429116    -2.227777945
 C      -16.653272878    26.080156285    -3.363902825
 C      -18.896318153    24.044783786    -3.086906973
 C      -17.970419770    25.630514271    -0.640696326
 C       -8.411944482    15.510469827     2.327363333
 C       -6.266940155    16.800736684     0.578569315
 C       -5.303775380    12.555721819     1.320712585
 C       -2.647501292    13.767986264     0.429552856
 C       -0.614998477    -0.877591631    -1.531300936
 C       -0.619872702    -0.873053435     1.531611685
 H        1.281935756     2.727980431     0.115970524
 H        0.359803970     4.973587565     0.114106101
 H       -3.631679673     3.380119294    -0.120324283
 H       -2.752447755     1.112464438    -0.114354370
 H       -3.383128257     5.699510097    -0.064453323
 H       -0.495946411     6.805501999     0.106525014
 H       -0.246756323     9.124578827     0.164342146
 H       -1.125789291    11.393562762     0.160994147
 H       -5.161757629     9.778292620    -0.071458639
 H       -4.237852811     7.531946152    -0.077362826
 H       -5.095508601    13.818226786    -1.732490388
 H       -4.142739711    10.947072883    -2.522532250
 H       -4.524463516    10.221036505    -4.645171593
 H       -5.389041645    10.527873970    -6.943533553
 H       -6.808041686    14.456382726    -5.866595971
 H       -5.875967492    14.181222514    -3.613361410
 H       -7.009306135    13.899451936    -9.502317007
 H       -5.910103864    14.529247522    -8.254816368
 H       -7.676617338    14.506875395    -7.959304654
 H       -8.777303677     8.833795109    -6.296566400
 H       -8.617342787     9.010282510    -4.540404043
 H       -7.511285182     9.911905636    -5.629020447
 H      -10.964355168    12.898979681    -5.340034353
 H      -10.689676564    14.686514038    -3.688941194
 H       -7.589506583    12.422106180    -1.736142552
 H       -7.814694481    10.655731591    -3.397344349
 H       -9.703171558    15.609042141    -1.833275040
 H       -7.476203608    13.953620400    -0.397975422
 H       -7.742714726    19.069698137    -0.147303525
 H       -9.381379541    20.782271116    -0.694140943
 H      -12.582715822    17.963509250    -0.118790698
 H      -10.983424045    16.223796467     0.441260392
 H      -11.568309028    21.530991334    -1.018028861
 H      -13.841534492    19.472361266    -0.590426595
 H      -12.830100044    23.041226201    -1.490491400
 H      -14.431417911    24.779469094    -2.042771108
 H      -17.667125262    21.925162519    -1.476288073
 H      -16.028409472    20.219874049    -0.910779386
 H       -7.964844465    11.647579866    -9.243436724
 H       -7.572165078    10.692438412    -7.797700669
 H       -8.882948398    12.956210881    -6.687976864
 H       -9.746310939    12.753159609    -8.206757263
 H      -11.025800854    11.387922228    -6.775731450
 H       -9.960206540    10.182635679    -7.521596197
 H        2.266989405    -1.030698516     0.001010873
 H        2.275100352     0.510440104     0.891471048
 H        2.273598730     0.508687153    -0.893239526
 H      -17.397864128    26.829133783    -3.687537860
 H      -16.242860861    25.606023174    -4.273801912
 H      -15.829846061    26.625912433    -2.870865838
 H      -18.586010157    23.478971772    -3.984041756
 H      -19.440598248    23.348321517    -2.425521299
 H      -19.614122372    24.817892052    -3.414098166
 H      -17.117650579    26.094118171    -0.112646787
 H      -18.715496442    26.422439825    -0.832520683
 H      -18.428092381    24.901145724     0.051642953
 H       -9.434333621    15.094375123     2.376880173
 H       -7.713357116    14.708688445     2.624159289
 H       -8.344633274    16.311496433     3.085205981
 H       -5.988554120    17.146783464    -0.433413548
 H       -6.128702182    17.645805368     1.275405052
 H       -5.547238682    16.013826977     0.866666198
 H       -6.202841220    12.000991556     0.997528132
 H       -4.970704236    12.117257417     2.279017857
 H       -5.608727678    13.596632984     1.524823815
 H       -1.856941128    13.791213887    -0.342401298
 H       -3.088750114    14.779767032     0.475616436
 H       -2.161360889    13.573391701     1.401954114
 H       -0.268787949    -0.368899813    -2.449429726
 H       -0.251924562    -1.919679380    -1.570975434
 H       -1.718281549    -0.907224422    -1.567280563
 H       -0.274992039    -0.363167264     2.449627293
 H       -1.723515992    -0.898868485     1.564556295
 H       -0.259879455    -1.916037987     1.574267620

