139   

Si        0.000000000     0.000000000     0.000000000
 C        1.869363292     0.000000000     0.000000000
 C       -0.632141938     1.734384815     0.000000000
 C        0.043821680     2.736036862     0.705869954
 C       -0.431238221     4.046936086     0.707722113
 C       -1.595735781     4.386020199     0.012765774
 C       -2.273663208     3.380910198    -0.689147636
 C       -1.799504483     2.071296432    -0.695854871
 C       -2.131093663     5.743140314    -0.014391524
 C       -1.579702151     6.797531098     0.610346375
 C       -2.118968852     8.153414311     0.580278334
 C       -1.443146796     9.164024107     1.277437612
 C       -1.920687232    10.472167089     1.276962870
 C       -3.092190021    10.798730132     0.582711388
 C       -3.768908577     9.792233111    -0.113648023
 C       -3.284402506     8.484643811    -0.116260966
Si       -3.727891485    12.531481973     0.580000302
 C       -5.479386681    12.501442101     0.046669651
 C       -5.977515674    13.128874452    -1.026871184
 C       -7.385129460    13.084152021    -1.425658050
 C       -7.789265459    13.783195217    -2.572042717
 C       -9.109341124    13.772730857    -2.991655752
 C      -10.093022308    13.090329596    -2.242907104
 C       -9.687125244    12.386650872    -1.092123102
 C       -8.351870205    12.370337513    -0.711926978
 N      -11.429222262    13.085446967    -2.676629069
 C      -11.913501989    14.277959658    -3.393615057
 C      -12.430241242    12.528420358    -1.750469578
 C      -11.907106494    15.547034561    -2.522781284
 C      -12.765793276    16.679819976    -3.109404908
 N      -14.201256189    16.370053173    -3.305641187
 C      -14.776761270    15.518641854    -2.334304208
 C      -14.654412959    15.886743486    -0.977664147
 C      -15.199973204    15.087949245     0.012611216
 C      -15.908103762    13.918985712    -0.308920861
 C      -16.047468972    13.572109759    -1.653933213
 C      -15.500342955    14.360899441    -2.660644966
 C      -14.550859096    16.096121115    -4.708931383
 C      -16.464160597    13.111240674     0.778455177
 C      -17.156809762    11.978921019     0.598785718
Si      -17.854309431    10.965163553     1.956087562
 C      -17.449697600    11.751144703     3.575480568
 C      -16.437430047    11.243572862     4.397710924
 C      -16.146841018    11.851371728     5.617282288
 C      -16.850971121    12.986650919     6.038366344
 C      -17.856274240    13.496165420     5.210928809
 C      -18.152347575    12.887885841     3.992404101
 C      -16.510345536    13.587761970     7.323794493
 C      -17.110212044    14.672136035     7.843697843
 C      -16.770183810    15.273850139     9.129024406
 C      -15.765475332    14.765610562     9.957237102
 C      -15.473518257    15.372601845    11.178204935
 C      -16.176927246    16.507765888    11.595773261
 C      -17.183899043    17.018695125    10.767574921
 C      -17.477917254    16.406708797     9.551533577
Si      -15.788593984    17.310056594    13.213229772
 C      -13.970069344    17.115129455    13.600421165
 C      -16.201356158    19.131871146    13.142477327
 C      -16.810994923    16.481098308    14.539342950
 C      -19.708461169    10.861575561     1.753194194
 C      -17.121617013     9.249269999     1.851296455
 C       -3.659638050    13.239426088     2.308241009
 C       -2.670488386    13.552114936    -0.571749236
 C       -0.603871072    -0.908842379    -1.518238236
 C       -0.633296995    -0.852616456     1.537735574
 H        0.958693557     2.532065220     1.269104038
 H        0.116078538     4.808814499     1.260078886
 H       -3.182173812     3.623202388    -1.237742840
 H       -2.370308670     1.331693296    -1.263936946
 H       -3.048851715     5.860440945    -0.598622498
 H       -0.662170053     6.682508405     1.194538099
 H       -0.533673048     8.926662437     1.825890451
 H       -1.350862062    11.218710230     1.836641506
 H       -4.688041335     9.991893089    -0.675190746
 H       -3.827464791     7.719263447    -0.668000476
 H       -6.130034083    11.905380526     0.707344392
 H       -5.356347995    13.732502019    -1.702116450
 H       -7.051495668    14.337308988    -3.153233479
 H       -9.380711094    14.297781069    -3.902512141
 H      -10.408861721    11.841755611    -0.491570841
 H       -8.062729227    11.802457299     0.174178040
 H      -13.445156721    12.631294794    -2.175153943
 H      -12.434901585    13.014535369    -0.760550828
 H      -12.241693709    11.447470795    -1.622246755
 H      -14.225814529    16.950075214    -5.329787017
 H      -15.649738844    16.035586818    -4.808265736
 H      -14.106247604    15.176789346    -5.120284588
 H      -14.133669692    16.805129084    -0.715431483
 H      -15.087933094    15.380073632     1.058072674
 H      -16.596268544    12.670853864    -1.929855368
 H      -15.628394918    14.057138552    -3.694747394
 H      -16.257130205    13.528023133     1.775312680
 H      -17.352728053    11.579584119    -0.407768372
 H      -15.851467623    10.362987441     4.120240649
 H      -15.361170588    11.437664306     6.246793857
 H      -18.418308904    14.377468168     5.514865201
 H      -18.949098310    13.332500863     3.388222531
 H      -15.703979903    13.084068091     7.864970914
 H      -17.917268963    15.175286145     7.302793715
 H      -15.200473598    13.886069718     9.653543258
 H      -14.678216865    14.927647363    11.782794277
 H      -17.766323380    17.902932188    11.040925505
 H      -18.265902607    16.817479905     8.922943297
 H      -11.298934142    14.424753318    -4.308888285
 H      -12.944212199    14.056252765    -3.755291566
 H      -12.258810830    15.297087366    -1.500947013
 H      -10.867386461    15.903952952    -2.387219690
 H      -12.726059606    17.559439339    -2.421410100
 H      -12.331004876    17.022895144    -4.073020666
 H        2.268480842    -1.028366966    -0.055233149
 H        2.279744595     0.465148791     0.913251869
 H        2.268865253     0.558333503    -0.866134561
 H      -13.700182701    17.648177028    14.529492154
 H      -13.342470229    17.525073877    12.788346402
 H      -13.690691489    16.055588415    13.735076383
 H      -15.674288507    19.629396286    12.308226919
 H      -17.283256716    19.302100628    13.003137177
 H      -15.904548001    19.644928591    14.074694341
 H      -16.587725539    15.400851979    14.603185618
 H      -16.616057272    16.921974850    15.532761160
 H      -17.892248663    16.581175409    14.335273075
 H      -20.172730492    11.863843692     1.731653617
 H      -19.983485993    10.350102859     0.813885365
 H      -20.168686961    10.299854183     2.586325735
 H      -16.017346019     9.277301783     1.874734979
 H      -17.460795745     8.617104114     2.691475262
 H      -17.416975212     8.743004914     0.915117842
 H       -4.224287196    12.612604244     3.021881899
 H       -2.622101343    13.312305388     2.677403610
 H       -4.097462939    14.253527734     2.339991458
 H       -2.696688261    13.151240384    -1.601598034
 H       -3.013047765    14.601329943    -0.610076563
 H       -1.614211024    13.557186421    -0.248697069
 H       -0.315230226    -0.378591941    -2.443776716
 H       -0.174869748    -1.925323649    -1.571540371
 H       -1.702790932    -1.014790168    -1.522182872
 H       -0.287069467    -0.340386242     2.453340917
 H       -1.737829174    -0.863115480     1.565074500
 H       -0.287642694    -1.899898404     1.589183069

