139   

Si        0.000000000     0.000000000     0.000000000
 C        1.868781122     0.000000000     0.000000000
 C       -0.648513210     1.726489598     0.000000000
 C        0.205194696     2.828789869     0.097988178
 C       -0.309269497     4.125295478     0.095865431
 C       -1.683615499     4.347726628    -0.019918719
 C       -2.537929443     3.241266025    -0.118705817
 C       -2.028982992     1.945986667    -0.101957262
 C       -2.266573019     5.684785818    -0.026810637
 C       -1.563997154     6.825733322     0.075005266
 C       -2.155499256     8.159089473     0.067220703
 C       -1.314048256     9.272430924     0.180562099
 C       -1.836643894    10.564643349     0.177563735
 C       -3.216018926    10.770092803     0.078495292
 C       -4.060455014     9.657422538    -0.030445422
 C       -3.534306824     8.368178463    -0.039874129
Si       -3.955497149    12.460295589     0.070319771
 C       -4.861241103    12.678297010    -1.509241124
 C       -4.931391360    11.728302255    -2.450895186
 C       -5.640646867    11.856994733    -3.723396625
 C       -5.616617491    10.762031774    -4.604442445
 C       -6.266393987    10.817098184    -5.823474631
 C       -7.019783652    11.957347526    -6.174460470
 C       -7.051073592    13.049623587    -5.295428533
 C       -6.345552015    13.000897662    -4.095235368
 N       -7.663061046    11.955232939    -7.437195117
 C       -8.563275843    10.815420504    -7.689479361
 C       -8.209221071    13.242383143    -7.893944126
 C       -9.964330972    10.906500485    -7.051352496
 C       -9.947778376    10.747210776    -5.520175167
 N       -9.334131701     9.474993615    -5.078431985
 C       -8.937147636     9.402611884    -3.726908318
 C       -8.579651733    10.562591080    -3.007849428
 C       -8.190802965    10.483455665    -1.680673868
 C       -8.089714390     9.247967749    -1.025501375
 C       -8.405042083     8.094402879    -1.747540802
 C       -8.807662895     8.159369073    -3.075367848
 C      -10.024890111     8.282639982    -5.600849271
 C       -7.674331479     9.220213953     0.377742153
 C       -7.543138216     8.101959819     1.104172708
Si       -7.025890344     8.033365669     2.860224097
 C       -5.482879830     7.030937946     2.983661003
 C       -4.231910110     7.641281670     3.114754037
 C       -3.073769857     6.869507544     3.206979869
 C       -3.141547155     5.474144676     3.181491698
 C       -4.396120687     4.864546084     3.048821513
 C       -5.552625520     5.632157469     2.944400763
 C       -1.958409292     4.625888612     3.274873802
 C       -0.700557686     5.080161496     3.404391611
 C        0.478857249     4.226699557     3.497304273
 C        0.404911565     2.831884096     3.459183627
 C        1.558776712     2.053738426     3.551350677
 C        2.814851974     2.656278170     3.665750709
 C        2.893337636     4.055282796     3.695050364
 C        1.739187501     4.829008619     3.611531836
Si        4.360450017     1.656094074     3.789617094
 C        3.963884188    -0.170849210     3.746997375
 C        5.457471073     2.078799488     2.335665724
 C        5.224484483     2.068499230     5.393794122
 C       -6.725703073     9.743998596     3.549192841
 C       -8.390048927     7.214693982     3.843658771
 C       -5.158586623    12.619426460     1.492007506
 C       -2.639807585    13.778550085     0.205812052
 C       -0.622044675    -0.890504981    -1.520695748
 C       -0.614450063    -0.856422837     1.545707174
 H        1.289727056     2.719282102     0.190096221
 H        0.375475504     4.966711964     0.188889115
 H       -3.611765102     3.395196233    -0.205026365
 H       -2.743407300     1.122202031    -0.175208471
 H       -3.357606252     5.708403145    -0.115826801
 H       -0.475076785     6.804401635     0.170919162
 H       -0.238914514     9.131059778     0.265508592
 H       -1.131258742    11.394818062     0.258294670
 H       -5.150122964     9.754518184    -0.115136654
 H       -4.212699647     7.519373627    -0.124463905
 H       -5.345591979    13.655512016    -1.637268913
 H       -4.445319368    10.744947071    -2.338854960
 H       -5.071961509     9.857390016    -4.327748454
 H       -6.211999594     9.972900136    -6.507744844
 H       -7.616270790    13.942616599    -5.538117212
 H       -6.364855369    13.867678715    -3.434994333
 H       -8.558274668    13.137351393    -8.935228524
 H       -7.399217549    13.994459115    -7.898316204
 H       -9.042030407    13.625675267    -7.284020579
 H      -10.353537570     8.445465472    -6.639278182
 H      -10.904523145     7.993006927    -5.003000170
 H       -9.312936781     7.437034669    -5.627324569
 H       -8.594149172    11.538156962    -3.491304687
 H       -7.933677121    11.401487010    -1.148977478
 H       -8.326624989     7.116959253    -1.269664449
 H       -9.026410836     7.233766974    -3.596729693
 H       -7.481021649    10.220687503     0.788609418
 H       -7.744706253     7.112655994     0.664322967
 H       -4.112806752     8.728749361     3.136645873
 H       -2.109965458     7.369054630     3.292758579
 H       -4.468218446     3.779183148     3.022682745
 H       -6.501568246     5.100925577     2.836196401
 H       -2.159979723     3.551416606     3.222396706
 H       -0.496897122     6.153850135     3.448533736
 H       -0.560924485     2.339038771     3.355403501
 H        1.436787978     0.967499536     3.528665122
 H        3.847860097     4.580655285     3.782969332
 H        1.818410984     5.914069401     3.637541375
 H       -8.665341046    10.721763918    -8.795123196
 H       -8.066062615     9.879162687    -7.338876981
 H      -10.433160039    11.878588381    -7.296901387
 H      -10.617846958    10.143463985    -7.514431515
 H       -9.352844192    11.594687953    -5.098277347
 H      -10.982741753    10.848529827    -5.123990144
 H        2.271445686    -1.026469140     0.049636975
 H        2.269401192     0.558128577     0.865876685
 H        2.271805670     0.470908537    -0.914369873
 H        4.883030007    -0.779147580     3.816608200
 H        3.450715314    -0.453893028     2.810102258
 H        3.311098296    -0.462600342     4.588876821
 H        4.955877257     1.856647477     1.376433590
 H        5.723982321     3.150365189     2.327903139
 H        6.398280171     1.501841099     2.361511515
 H        4.582233204     1.839560797     6.263691026
 H        6.158427299     1.490953948     5.508306910
 H        5.485405482     3.139985251     5.450904942
 H       -5.932866032    10.275533998     2.991382226
 H       -7.640393224    10.360915227     3.504194368
 H       -6.410527532     9.695355486     4.607086534
 H       -8.637043963     6.212981157     3.452553192
 H       -8.100161254     7.096253545     4.903010825
 H       -9.315974208     7.816522757     3.816468469
 H       -5.986016529    11.892077353     1.403124454
 H       -4.656470794    12.442532268     2.459742957
 H       -5.605566306    13.627977065     1.527962685
 H       -1.930772285    13.726605648    -0.640607126
 H       -3.082067941    14.790357847     0.200140851
 H       -2.057858371    13.676654216     1.138368593
 H       -0.285536346    -0.385074425    -2.444184163
 H       -0.253813612    -1.930425964    -1.557855498
 H       -1.725008697    -0.926176557    -1.548951575
 H       -0.264620730    -0.338024972     2.456797742
 H       -1.717682305    -0.879057608     1.581875750
 H       -0.257339722    -1.899355471     1.596009047

