139   

Si        0.000000000     0.000000000     0.000000000
 C        1.869372414     0.000000000     0.000000000
 C       -0.629522178     1.735742109     0.000000000
 C        0.048484195     2.732393039    -0.711018487
 C       -0.420937745     4.045197726    -0.715607226
 C       -1.581714698     4.391457948    -0.017938576
 C       -2.261901983     3.391579932     0.689080595
 C       -1.793389747     2.079797947     0.698065427
 C       -2.109727664     5.751727099     0.005356636
 C       -1.552532096     6.798928913    -0.626201444
 C       -2.079826341     8.159376605    -0.603434276
 C       -1.396905345     9.158644218    -1.308007796
 C       -1.862701126    10.471922028    -1.315156117
 C       -3.021761286    10.817258526    -0.612078683
 C       -3.706062228     9.819781984     0.093960113
 C       -3.240087325     8.506449290     0.095744243
Si       -3.669709878    12.545047865    -0.597589821
 C       -5.351420910    12.585155895    -1.323984516
 C       -6.004593326    11.513718144    -1.792979920
 C       -7.347820442    11.551393443    -2.372201044
 C       -7.921171195    10.355992569    -2.827701304
 C       -9.189796661    10.334539120    -3.384557931
 C       -9.916641480    11.532048653    -3.557420971
 C       -9.339037169    12.733739889    -3.102393787
 C       -8.087400605    12.730331970    -2.501019278
 N      -11.204425913    11.511356615    -4.122556177
 C      -11.528407172    10.397097155    -5.030308307
 C      -11.745958827    12.799511928    -4.589259398
 C      -10.670855912    10.386361121    -6.306154400
 C      -10.898836750     9.087804202    -7.096469759
 N      -10.096571449     9.014421091    -8.329993874
 C      -10.365860017     9.962798432    -9.332512535
 C      -11.666049955    10.492313826    -9.480160972
 C      -11.936400905    11.427148829   -10.466605292
 C      -10.948219049    11.832807422   -11.374300848
 C       -9.669133479    11.283400654   -11.247115809
 C       -9.375880053    10.360543875   -10.252255915
 C       -8.680251048     8.705270478    -8.067171981
 C      -11.286602513    12.823727279   -12.397446201
 C      -10.422428408    13.281477140   -13.312841670
Si      -10.800557026    14.518745338   -14.609601480
 C       -9.684739903    15.967967759   -14.364607714
 C       -9.132342146    16.229292804   -13.106231643
 C       -8.288756883    17.323341032   -12.917022494
 C       -7.985320578    18.182621762   -13.976834852
 C       -8.543769484    17.920723110   -15.235048265
 C       -9.384274136    16.827281642   -15.428345541
 C       -7.108094200    19.339130714   -13.825682648
 C       -6.510226650    19.700774161   -12.677713970
 C       -5.633043567    20.857268935   -12.526674321
 C       -5.326911535    21.715121107   -13.586708355
 C       -4.483361338    22.809298250   -13.397425937
 C       -3.933450761    23.075698300   -12.138952031
 C       -4.239547471    22.217938711   -11.074900900
 C       -5.075764690    21.121257426   -11.268531805
Si       -2.816228725    24.523783660   -11.885532631
 C       -3.248599785    25.886529418   -13.090210249
 C       -3.001301840    25.176027708   -10.143166589
 C       -1.056214903    23.963872047   -12.168776673
 C      -10.480961581    13.728876907   -16.272374029
 C      -12.569686276    15.107710502   -14.512832349
 C       -3.752777796    13.145099538     1.169895281
 C       -2.570658616    13.680486564    -1.594657534
 C       -0.632941684    -0.852282464    -1.537830541
 C       -0.605451805    -0.908133703     1.517760926
 H        0.960661237     2.523334140    -1.276965332
 H        0.127799788     4.802655357    -1.272660105
 H       -3.167774063     3.639227426     1.239511335
 H       -2.365513593     1.343569962     1.269300398
 H       -3.024904029     5.876930833     0.591582650
 H       -0.637037349     6.672997936    -1.211849240
 H       -0.491684791     8.910032623    -1.858751643
 H       -1.289957525    11.207762906    -1.886179528
 H       -4.617405807    10.031887791     0.662442195
 H       -3.789611654     7.748506885     0.651154593
 H       -5.805170828    13.587479365    -1.349327639
 H       -5.569341756    10.503250354    -1.782914607
 H       -7.365889396     9.421409231    -2.732718375
 H       -9.613625940     9.383723165    -3.693298412
 H       -9.867141614    13.676361244    -3.204464132
 H       -7.672171210    13.672954189    -2.141220806
 H      -12.734456783    12.650137714    -5.054733917
 H      -11.094023167    13.308774315    -5.318303100
 H      -11.900692869    13.464146642    -3.719937710
 H       -8.598618652     7.971788966    -7.247313869
 H       -8.080327551     9.590896787    -7.799157767
 H       -8.240373083     8.231101959    -8.963281601
 H      -12.465812800    10.177677655    -8.816427292
 H      -12.942436074    11.840705259   -10.544655004
 H       -8.879520593    11.580287300   -11.940090877
 H       -8.368645334     9.960315145   -10.191424029
 H      -12.329636090    13.162134567   -12.343714966
 H       -9.381898035    12.919066814   -13.343566909
 H       -9.335311143    15.590902322   -12.239574156
 H       -7.867210440    17.503412998   -11.929577702
 H       -8.319321207    18.577507141   -16.073322110
 H       -9.788572508    16.671490439   -16.432061510
 H       -6.957400552    19.921221079   -14.739656353
 H       -6.660610638    19.118530354   -11.763701892
 H       -5.746181024    21.533724891   -14.574779166
 H       -4.279095613    23.441973142   -14.265679449
 H       -3.839771185    22.376049880   -10.069420184
 H       -5.299537281    20.464721104   -10.429593179
 H      -11.413627529     9.441955990    -4.467759092
 H      -12.609696278    10.460030019    -5.289275450
 H      -10.905368544    11.265478442    -6.936337359
 H       -9.598607810    10.491530286    -6.047093836
 H      -10.651715140     8.200935992    -6.468923505
 H      -11.973851126     8.972911151    -7.363809672
 H        2.268550097    -1.028085862     0.060893402
 H        2.268982670     0.563179367     0.863005198
 H        2.279480232     0.459975931    -0.915991848
 H       -2.637876224    26.788732680   -12.908059634
 H       -4.310016556    26.179974054   -12.997651608
 H       -3.077335686    25.578320723   -14.136404582
 H       -4.052004895    25.440035158    -9.924898507
 H       -2.680635801    24.433824805    -9.391477037
 H       -2.392380704    26.084845581    -9.990292980
 H       -0.917364946    23.578021683   -13.194778935
 H       -0.341334495    24.792698600   -12.023571598
 H       -0.775025606    23.153377560   -11.472488553
 H       -9.418275414    13.448355993   -16.387149199
 H      -11.081223464    12.809141772   -16.396857401
 H      -10.738369967    14.408581469   -17.103019159
 H      -12.783827768    15.579715817   -13.536663950
 H      -12.785811330    15.858239695   -15.294166769
 H      -13.280302855    14.272862638   -14.646671708
 H       -4.419278982    12.509954396     1.780943888
 H       -2.754606436    13.129218349     1.643540568
 H       -4.134719540    14.179440963     1.228410095
 H       -2.514999006    13.361442510    -2.651355483
 H       -2.951929366    14.717289160    -1.584601544
 H       -1.541984948    13.702108706    -1.193448747
 H       -0.288772657    -0.338740201    -2.453470427
 H       -0.284888477    -1.898838996    -1.590322449
 H       -1.737476720    -0.865572287    -1.564053069
 H       -0.313046257    -0.380257169     2.443549542
 H       -1.704844342    -1.009411913     1.523103480
 H       -0.180774092    -1.926638777     1.568971363

