139   

Si        0.000000000     0.000000000     0.000000000
 C        1.869174105     0.000000000     0.000000000
 C       -0.602928415     1.745058111     0.000000000
 C       -0.113905553     2.648437864    -0.951424336
 C       -0.556656648     3.970011942    -0.967885316
 C       -1.502105435     4.418491502    -0.040519766
 C       -1.992406733     3.512363071     0.908132403
 C       -1.549027901     2.191700682     0.929312327
 C       -1.994657381     5.791944120    -0.019590134
 C       -1.605136929     6.758193111    -0.868408782
 C       -2.099256696     8.131144858    -0.845436630
 C       -3.045043656     8.575650119     0.083937285
 C       -3.490124265     9.895929183     0.070734497
 C       -2.999920690    10.803250642    -0.877334151
 C       -2.054604549    10.361119948    -1.808633418
 C       -1.609931686     9.040433137    -1.791352739
Si       -3.613503883    12.543261774    -0.862879367
 C       -3.206404352    13.336473215     0.737575308
 C       -2.558510309    12.735878433     1.744644490
 C       -2.237172077    13.376914399     3.020279066
 C       -1.553064151    12.636331473     3.995667563
 C       -1.223964065    13.193533911     5.220013812
 C       -1.529191829    14.544732442     5.496376724
 C       -2.214809830    15.289076280     4.517169796
 C       -2.577572022    14.699875896     3.312473873
 N       -1.190223441    15.097401517     6.741380701
 C        0.006033737    14.572569199     7.422461462
 C       -1.398847055    16.541771073     6.917144390
 C        1.311842009    14.660704650     6.614235049
 C        1.993039372    16.038600939     6.673414728
 N        2.761330190    16.309620869     7.902072166
 C        3.748422657    15.379461732     8.266571667
 C        4.491624573    14.722927696     7.260700114
 C        5.469130079    13.802549875     7.599815803
 C        5.780544311    13.533168256     8.940720749
 C        5.064798187    14.206530084     9.933882174
 C        4.069184496    15.120528179     9.612500345
 C        1.973782367    16.914055288     8.986183164
 C        6.822910324    12.550564215     9.242521997
 C        7.202839739    12.214254854    10.482178337
Si        8.500727096    10.991630964    10.902019744
 C        7.730582657     9.650276280    11.908880896
 C        6.345537734     9.447481896    11.878889993
 C        5.764599723     8.435193929    12.638782754
 C        6.552137742     7.597613157    13.439426465
 C        7.935233972     7.799897302    13.462882328
 C        8.519955175     8.814066774    12.705433715
 C        5.896501541     6.551374169    14.217321270
 C        6.532085677     5.685097277    15.024490280
 C        5.874760175     4.639375551    15.801721862
 C        4.492488504     4.437992215    15.777632221
 C        3.905747612     3.425398822    16.537127313
 C        4.690781562     2.591114986    17.337921753
 C        6.078068063     2.790529068    17.364121581
 C        6.660587805     3.801824367    16.605391157
Si        3.945875481     1.242364016    18.354604909
 C        2.095213056     1.164701854    18.104620517
 C        4.705270006    -0.386114509    17.839679246
 C        4.312507405     1.579493628    20.156010819
 C        9.254657454    10.228929165     9.373931524
 C        9.818577297    11.865702756    11.897322107
 C       -2.825818353    13.540816907    -2.232545726
 C       -5.468908389    12.530802940    -1.083812715
 C       -0.638484273    -0.845961849    -1.539160351
 C       -0.612763821    -0.912917019     1.511402453
 H        0.624142387     2.356004048    -1.703770559
 H       -0.158464733     4.653939974    -1.715388175
 H       -2.729030535     3.840103922     1.639525945
 H       -1.966498674     1.531342888     1.694272939
 H       -2.732726988     6.000464623     0.760830042
 H       -0.868019731     6.550033447    -1.649429187
 H       -3.442636082     7.888460986     0.828751191
 H       -4.231352568    10.185436112     0.822753434
 H       -1.636503473    11.024965276    -2.570165949
 H       -0.873461885     8.715402565    -2.523788015
 H       -3.544090546    14.380831624     0.818237581
 H       -2.206775128    11.694927363     1.685838014
 H       -1.283696735    11.598221238     3.793033281
 H       -0.726584871    12.580121966     5.966153235
 H       -2.476477427    16.327543854     4.688783367
 H       -3.123252758    15.294240740     2.578239879
 H       -1.101567687    16.847377589     7.933898905
 H       -2.478926005    16.763481087     6.822411152
 H       -0.847905174    17.159347479     6.188802579
 H        1.244625550    17.629487181     8.571429557
 H        2.651730776    17.494942407     9.640450289
 H        1.432490632    16.179727956     9.605077948
 H        4.298353811    14.934330151     6.212577576
 H        6.015564969    13.290701191     6.806485053
 H        5.286315843    14.017117443    10.985786322
 H        3.538478809    15.618121089    10.417204273
 H        7.271045753    12.106134887     8.343716699
 H        6.737021642    12.680906901    11.365356186
 H        5.681594995    10.069172747    11.268854192
 H        4.685674856     8.294843836    12.606179366
 H        8.569564103     7.162745070    14.076329172
 H        9.606029391     8.924997610    12.765296907
 H        4.809291678     6.509452752    14.101507633
 H        7.619103069     5.726349552    15.140663658
 H        3.858224487     5.073360480    15.161890928
 H        2.819431626     3.316966730    16.476398105
 H        6.741698336     2.168659559    17.971568837
 H        7.739626960     3.941349507    16.638272435
 H        0.116414816    15.092840783     8.398979150
 H       -0.199803858    13.505895222     7.683445468
 H        2.014455915    13.880828792     6.973883874
 H        1.113313186    14.399966536     5.553923846
 H        2.697897859    16.141649703     5.812678746
 H        1.243355170    16.847875203     6.534959487
 H        2.270623180    -1.027959676     0.040086054
 H        2.268201707     0.547531491     0.873429933
 H        2.276998736     0.481530547    -0.906028783
 H        1.646217136     0.353516394    18.705407933
 H        1.837115850     0.973504839    17.047722270
 H        1.605070495     2.107613266    18.405804976
 H        4.520656403    -0.591964319    16.769603659
 H        5.799034624    -0.390004203    17.991858326
 H        4.284713230    -1.227102886    18.418473359
 H        3.876298140     2.542343112    20.478804421
 H        3.896383385     0.790179968    20.806286729
 H        5.399274015     1.630401336    20.345892241
 H        8.491819537     9.708389341     8.766476486
 H        9.731256252    10.992772638     8.734145956
 H       10.027522155     9.484464257     9.636884419
 H        9.408615566    12.267912165    12.841406155
 H       10.649727340    11.187388893    12.157050913
 H       10.245221072    12.714676934    11.332692997
 H       -1.726629736    13.576723284    -2.123093413
 H       -3.052486162    13.113548714    -3.225308630
 H       -3.190641543    14.583474781    -2.229660872
 H       -5.968563070    11.976571974    -0.268888504
 H       -5.882083222    13.554695117    -1.090897847
 H       -5.753493062    12.048241665    -2.036158648
 H       -0.293529145    -0.333379233    -2.454730617
 H       -0.296658588    -1.894452799    -1.593716689
 H       -1.743379173    -0.853448880    -1.562755449
 H       -0.282428555    -0.418658000     2.442668676
 H       -1.715509335    -0.969769509     1.533388525
 H       -0.229528154    -1.948896663     1.533417931

