139   

Si        0.000000000     0.000000000     0.000000000
 C        1.869162444     0.000000000     0.000000000
 C       -0.612326017     1.741558296     0.000000000
 C       -0.100132475     2.658014545    -0.926405107
 C       -0.549939539     3.977182820    -0.941957445
 C       -1.525418850     4.410194178    -0.038647725
 C       -2.039036710     3.490972424     0.884704380
 C       -1.589077506     2.172499843     0.904654402
 C       -2.026307888     5.780730724    -0.017971708
 C       -1.616622137     6.757794157    -0.844643096
 C       -2.118159029     8.128007800    -0.823131535
 C       -1.602034204     9.049339738    -1.745092911
 C       -2.049953025    10.366730020    -1.762031065
 C       -3.025469545    10.797412540    -0.851228806
 C       -3.541051764     9.880845404     0.068352090
 C       -3.092728227     8.559554217     0.079992874
Si       -3.595868298    12.550291831    -0.902047613
 C       -4.385627028    12.889845184    -2.520409600
 C       -4.514289176    11.982721956    -3.497788607
 C       -5.142650223    12.241537355    -4.793830584
 C       -5.209546628    11.196311747    -5.727360702
 C       -5.792925767    11.384668496    -6.969135120
 C       -6.281313541    12.654731914    -7.337879521
 C       -6.213834808    13.703257189    -6.407151784
 C       -5.673057967    13.484948886    -5.144956501
 N       -6.869767047    12.798073229    -8.618590328
 C       -6.044528508    12.334553172    -9.752953518
 C       -7.524919362    14.089289610    -8.889834840
 C       -4.747413382    13.135992495    -9.973776761
 C       -3.514336478    12.405106739    -9.405648437
 N       -2.363541663    13.282059788    -9.096568852
 C       -2.605124363    14.078268902    -7.927644723
 C       -2.356010924    13.455639383    -6.693672781
 C       -2.563700645    14.154322442    -5.514417323
 C       -3.015330266    15.482997432    -5.535648839
 C       -3.247536335    16.096349253    -6.768827097
 C       -3.036933649    15.408189163    -7.959953599
 C       -1.889080193    14.045932315   -10.264259868
 C       -3.218748425    16.176223175    -4.259769921
 C       -3.645744227    17.441351203    -4.158801312
Si       -3.919397850    18.362353551    -2.599417032
 C       -2.822689554    19.844692072    -2.595850445
 C       -1.733285544    19.928338262    -3.468684559
 C       -0.906252432    21.051194398    -3.462828899
 C       -1.144875181    22.109346301    -2.581567244
 C       -2.234746876    22.020526229    -1.705002590
 C       -3.064256265    20.902103567    -1.710054645
 C       -0.306297700    23.303132090    -2.540330431
 C        0.764768520    23.511593333    -3.324713704
 C        1.604418834    24.704534145    -3.284932686
 C        1.366936546    25.765190307    -2.407132916
 C        2.196104292    26.887236643    -2.403460714
 C        3.282774103    26.971601641    -3.278616324
 C        3.523123318    25.909243174    -4.160918024
 C        2.693127662    24.791702490    -4.163426138
Si        4.398129440    28.442532152    -3.298048322
 C        3.957801168    29.627494115    -1.921133112
 C        6.161384711    27.865863038    -3.069038818
 C        4.215376179    29.306523572    -4.944968140
 C       -5.713087571    18.884104134    -2.554931628
 C       -3.527368011    17.319473660    -1.102056384
 C       -4.832095265    12.907383996     0.450900501
 C       -2.112047519    13.671329248    -0.713601570
 C       -0.637555497    -0.847753020    -1.538635862
 C       -0.609716739    -0.914201622     1.512142873
 H        0.662095402     2.377883325    -1.659025423
 H       -0.132864769     4.671553242    -1.669236139
 H       -2.799170138     3.806754383     1.597101108
 H       -2.025604315     1.501475868     1.649464651
 H       -2.788544021     5.977106956     0.742152813
 H       -0.854555642     6.561361128    -1.604480870
 H       -0.842093698     8.732550570    -2.457072160
 H       -1.611328788    11.040641348    -2.505338589
 H       -4.304684232    10.159388006     0.799853035
 H       -3.512060471     7.864251513     0.805073362
 H       -4.765136935    13.916671996    -2.636863005
 H       -4.151048021    10.948493242    -3.397941332
 H       -4.811086526    10.214523838    -5.468153490
 H       -5.880131210    10.549951679    -7.659841421
 H       -6.569997987    14.697276322    -6.659146400
 H       -5.639388924    14.313926448    -4.435237325
 H       -8.063683295    14.025644705    -9.850686442
 H       -6.834828928    14.946632356    -8.934353909
 H       -8.282588970    14.282008206    -8.108763674
 H       -1.554332453    13.330434748   -11.035044855
 H       -1.010825355    14.645819519    -9.967339522
 H       -2.634294354    14.717806059   -10.714183893
 H       -2.005775610    12.424304635    -6.675922013
 H       -2.381200521    13.657686669    -4.559451507
 H       -3.596304900    17.128500505    -6.809762177
 H       -3.217892564    15.906086092    -8.907642707
 H       -2.979698588    15.554914310    -3.385840475
 H       -3.877160416    18.035286701    -5.058899734
 H       -1.494556659    19.128676621    -4.178081054
 H       -0.066477609    21.094550900    -4.154451923
 H       -2.437665456    22.833823947    -1.010723183
 H       -3.899764922    20.889221980    -1.004969063
 H       -0.611493266    24.051305012    -1.802846170
 H        1.069723069    22.762565709    -4.061762008
 H        0.527832973    25.724211355    -1.714831186
 H        1.959713080    27.684714101    -1.693695846
 H        4.357448228    25.920117652    -4.868010245
 H        2.895186061    23.976583475    -4.856032548
 H       -5.820172830    11.254731587    -9.603885817
 H       -6.679711542    12.380416805   -10.667002872
 H       -4.604180857    13.332769074   -11.050459300
 H       -4.837638050    14.132718758    -9.498086387
 H       -3.785919832    11.866259321    -8.466697212
 H       -3.159225365    11.632690642   -10.122280946
 H        2.269982956    -1.027737998     0.051196832
 H        2.268648143     0.556647413     0.867369365
 H        2.277398387     0.471124790    -0.911293788
 H        4.656208481    30.483107343    -1.893687945
 H        4.002338959    29.133872847    -0.933827723
 H        2.939894918    30.037074536    -2.047295908
 H        6.282589540    27.322783166    -2.114007670
 H        6.474708768    27.183186653    -3.878381862
 H        6.864798738    28.717013222    -3.059901009
 H        3.176715304    29.649196541    -5.103744183
 H        4.872175359    30.191710480    -5.010427532
 H        4.472674142    28.636462850    -5.784370403
 H       -5.957526306    19.555100964    -3.398103651
 H       -6.386955453    18.010549893    -2.620839749
 H       -5.956379181    19.422899155    -1.622818509
 H       -2.480178900    16.965430516    -1.123491720
 H       -3.658448248    17.895046085    -0.168191771
 H       -4.187513905    16.435423275    -1.043024615
 H       -5.736844673    12.281302088     0.344794783
 H       -4.404573469    12.712862052     1.450360349
 H       -5.159921657    13.962051244     0.430692667
 H       -1.384363912    13.523127324    -1.531693759
 H       -2.404115476    14.736723643    -0.714858536
 H       -1.584384822    13.472167682     0.236575613
 H       -0.293557430    -0.335180494    -2.454571369
 H       -0.294397668    -1.895826522    -1.592678087
 H       -1.742443006    -0.856609669    -1.562095209
 H       -0.291434177    -0.411207108     2.442917033
 H       -1.711658698    -0.985699394     1.528240496
 H       -0.212827928    -1.944845003     1.541149637

