139   

Si        0.000000000     0.000000000     0.000000000
 C        1.869482485     0.000000000     0.000000000
 C       -0.617707879     1.740365125     0.000000000
 C        0.061909645     2.730306267    -0.718880004
 C       -0.398355396     4.046270249    -0.723628565
 C       -1.552509260     4.402299260    -0.019984579
 C       -2.234453599     3.409187268     0.694773430
 C       -1.774054548     2.094525963     0.705426567
 C       -2.070761383     5.766331626     0.003283495
 C       -1.509617046     6.807871625    -0.634061950
 C       -2.026666112     8.172225590    -0.611695709
 C       -3.179959353     8.530398270     0.090838006
 C       -3.638569552     9.847980604     0.084563105
 C       -2.955572868    10.834453308    -0.632085061
 C       -1.798113413    10.478548633    -1.338326351
 C       -1.339293743     9.164590664    -1.324292447
Si       -3.534926985    12.585740087    -0.661384842
 C       -2.345984498    13.629096315     0.265775045
 C       -1.239724852    13.162611695     0.859731341
 C       -0.285970514    13.989757120     1.601650746
 C        0.834925772    13.369143095     2.175802204
 C        1.768400660    14.103339858     2.887856204
 C        1.583222697    15.487756412     3.081057446
 C        0.465758891    16.112099993     2.507411704
 C       -0.441837406    15.368348854     1.760016258
 N        2.576091474    16.179179131     3.818855857
 C        2.760281777    15.721848205     5.210568594
 C        2.596126133    17.641455983     3.667163206
 C        1.858143957    16.377155913     6.271131364
 C        0.360385905    16.046754480     6.130343479
 N       -0.038716456    14.704222301     6.579392486
 C        0.353986002    14.287063505     7.854939196
 C        0.436278933    15.228504212     8.906045100
 C        0.823713699    14.830099837    10.174506267
 C        1.095549277    13.484970932    10.463353284
 C        0.984509541    12.550797738     9.429182459
 C        0.615840536    12.933061446     8.146952331
 C       -0.102567777    13.693168856     5.517178933
 C        1.501455608    13.118061360    11.820773256
 C        1.784835257    11.867088946    12.207229535
Si        2.295787568    11.361687762    13.891379922
 C        3.964958273    10.581742050    13.778983520
 C        4.795466759    10.841585091    12.683794584
 C        6.056775635    10.253598122    12.596650252
 C        6.518126072     9.400296111    13.602866653
 C        5.685664621     9.145335392    14.700899200
 C        4.424297647     9.728915291    14.790018022
 C        7.830187856     8.763143458    13.553701639
 C        8.720773590     8.923948571    12.560188553
 C       10.033030199     8.287511039    12.509705811
 C       10.495716890     7.431851898    13.513503669
 C       11.757386530     6.845095247    13.424271221
 C       12.589616145     7.107950266    12.330495059
 C       12.128480276     7.964946659    11.323704291
 C       10.864619036     8.543672960    11.411699813
Si       14.259627527     6.329055441    12.215938728
 C       14.979824810     6.112616249    13.927661293
 C       14.074001228     4.662594799    11.391288642
 C       15.406297437     7.408479065    11.208319120
 C        2.397234740    12.819975823    15.053156989
 C        1.049954291    10.122950281    14.527963039
 C       -3.624523165    13.179935074    -2.429824557
 C       -5.215195448    12.747497037     0.138226490
 C       -0.636460264    -0.849410217    -1.537632178
 C       -0.608365199    -0.905407746     1.517812683
 H        0.968227493     2.513029591    -1.291097659
 H        0.151963762     4.798182883    -1.286586633
 H       -3.135336398     3.664356737     1.250014008
 H       -2.346805470     1.364243856     1.283722871
 H       -2.981682513     5.899618614     0.594491858
 H       -0.599406351     6.673597532    -1.225952630
 H       -3.732223936     7.779792363     0.653448269
 H       -4.544751262    10.068053005     0.655842159
 H       -1.222586786    11.208908630    -1.915598223
 H       -0.437607433     8.906448538    -1.876749348
 H       -2.611770798    14.696112298     0.302688135
 H       -0.959090249    12.098739782     0.836027406
 H        0.982967271    12.295869689     2.045712251
 H        2.656560116    13.619267843     3.289846941
 H        0.301387529    17.177860541     2.633501495
 H       -1.295544095    15.874928079     1.308440765
 H        3.513318263    18.034903449     4.140173912
 H        1.728115183    18.158784827     4.104466696
 H        2.651865124    17.892664502     2.592593569
 H       -0.486176018    14.144761502     4.583248539
 H       -0.822346883    12.904903385     5.805976798
 H        0.870532238    13.226691512     5.291900534
 H        0.193228679    16.270738062     8.723860759
 H        0.901336136    15.576797488    10.965450866
 H        1.190772528    11.497089694     9.626203907
 H        0.547785358    12.175706330     7.372717630
 H        1.553965590    13.976185408    12.503762104
 H        1.718575730    11.024987712    11.499286211
 H        4.487892650    11.502959102    11.866604125
 H        6.682753193    10.467753492    11.732188784
 H        6.026041992     8.483474255    15.494886555
 H        3.818364362     9.492149044    15.668642077
 H        8.058300475     8.118858492    14.407830673
 H        8.492157877     9.568062491    11.705884361
 H        9.869712034     7.214928791    14.377263953
 H       12.062415941     6.183166428    14.239585005
 H       12.734110106     8.207168391    10.446103021
 H       10.523095248     9.204701479    10.617175600
 H        2.637812545    14.616282179     5.251912448
 H        3.828434452    15.923184237     5.467973909
 H        2.216582469    16.062178548     7.274213104
 H        1.986781903    17.475495608     6.251490888
 H       -0.236339169    16.783738842     6.720888190
 H        0.038635690    16.181746502     5.072040936
 H        2.269248584    -1.027543027     0.066576188
 H        2.268856970     0.567968899     0.859974144
 H        2.279494093     0.454963827    -0.918500122
 H       16.012041922     5.722525416    13.880313966
 H       14.387632549     5.406064631    14.534984074
 H       15.012796044     7.074039681    14.471726065
 H       13.395190956     4.004347369    11.962836638
 H       13.654721256     4.762322259    10.373887740
 H       15.045608580     4.145709589    11.303371502
 H       15.465292874     8.429495738    11.626983860
 H       16.431044585     6.996480932    11.193242614
 H       15.071030469     7.495962922    10.160110231
 H        3.125696545    13.569771618    14.694358237
 H        1.418913320    13.322432407    15.155010590
 H        2.718639812    12.507098784    16.062631918
 H        1.034099313     9.211604640    13.903223969
 H        1.274949441     9.813810969    15.563238771
 H        0.029237025    10.546903025    14.520896726
 H       -2.632845183    13.158307947    -2.916552868
 H       -4.301391103    12.543768699    -3.028792089
 H       -4.000547949    14.216476199    -2.489970054
 H       -5.183424434    12.467618225     1.206967584
 H       -5.588224603    13.785898361     0.082501158
 H       -5.960779278    12.100908219    -0.358153757
 H       -0.290803501    -0.337336590    -2.453540767
 H       -0.292430369    -1.897325257    -1.590425193
 H       -1.741109207    -0.858590576    -1.563350234
 H       -0.313509988    -0.378998122     2.443696481
 H       -1.708219146    -1.002218776     1.523732842
 H       -0.187998399    -1.925760874     1.568747576

