139   

Si        0.000000000     0.000000000     0.000000000
 C        1.869243984     0.000000000     0.000000000
 C       -0.633338239     1.734642408     0.000000000
 C        0.138023830     2.779205371    -0.520224513
 C       -0.344644645     4.087504455    -0.517971133
 C       -1.612327405     4.379509625    -0.007788105
 C       -2.386359956     3.331696941     0.507835484
 C       -1.904104673     2.025369768     0.512723682
 C       -2.158334989     5.732193278     0.015177728
 C       -1.518836454     6.822670147    -0.440710480
 C       -2.067088472     8.174537664    -0.416627555
 C       -3.334931853     8.464929503     0.093884801
 C       -3.819468160     9.772577958     0.097063251
 C       -3.041504488    10.820188134    -0.405296109
 C       -1.769312885    10.532677047    -0.916967976
 C       -1.290551098     9.225557800    -0.923855246
Si       -3.669318152    12.554089008    -0.407431648
 C       -2.963437731    13.477198438     1.006840223
 C       -2.115287069    12.981482406     1.917372108
 C       -1.574981032    13.760904006     3.035706931
 C       -0.692101260    13.136490478     3.930244647
 C       -0.156144019    13.833931386     5.002368636
 C       -0.507275606    15.177927434     5.208369768
 C       -1.384674887    15.809669494     4.320573028
 C       -1.903475130    15.103117400     3.240029849
 N        0.091114695    15.826234508     6.339620504
 C       -0.634754314    15.521834191     7.592100840
 C        0.339559923    17.266935075     6.152265249
 C       -2.019920784    16.188984138     7.713411901
 C       -2.929211909    15.453682524     8.716472961
 N       -3.884242728    14.503411129     8.107716707
 C       -3.290271490    13.398598918     7.445428672
 C       -2.381716024    12.603546095     8.173283698
 C       -1.774354211    11.513309260     7.572872818
 C       -2.089523461    11.144975283     6.256444648
 C       -3.018472045    11.913864112     5.551779011
 C       -3.622562425    13.022271764     6.135283691
 C       -4.967909963    15.185319371     7.378773900
 C       -1.415295102     9.983424338     5.674835356
 C       -1.624753855     9.528148425     4.433097192
Si       -0.785920200     8.075357927     3.696144120
 C        0.393770355     7.313296555     4.892490587
 C        1.389408833     8.104584339     5.483045720
 C        2.288622264     7.548043864     6.387843850
 C        2.221717342     6.188047501     6.720616827
 C        1.231614617     5.401408124     6.126787628
 C        0.327412824     5.956675840     5.221046814
 C        3.186332390     5.649999128     7.674387030
 C        3.228688807     4.368869199     8.077994208
 C        4.192466759     3.829110009     9.031563162
 C        5.184094067     4.612329688     9.627638877
 C        6.084981621     4.053672911    10.534551211
 C        6.011373276     2.697900047    10.866877345
 C        5.017747971     1.909626109    10.270347743
 C        4.121738794     2.469135996     9.363751232
Si        7.188571185     1.929458563    12.063095799
 C        8.270649943     3.230285253    12.857527189
 C        6.212070841     1.050203710    13.392832399
 C        8.259218590     0.706462034    11.140901497
 C       -2.095070945     6.847448302     3.187677363
 C        0.187090060     8.656160283     2.212581488
 C       -3.172835911    13.402506331    -1.995965114
 C       -5.531513724    12.571536567    -0.247105197
 C       -0.634255329    -0.858073856    -1.533425781
 C       -0.604856405    -0.894703918     1.525977840
 H        1.135885363     2.612341194    -0.935684933
 H        0.279138983     4.883406825    -0.921307536
 H       -3.376663839     3.537254170     0.910091434
 H       -2.551827247     1.249689567     0.930399981
 H       -3.165196008     5.811067243     0.436194690
 H       -0.513629682     6.742881835    -0.864695884
 H       -3.962570620     7.667046361     0.486928226
 H       -4.819829768     9.937009147     0.507982041
 H       -1.117141647    11.311842404    -1.322869009
 H       -0.302028801     9.019612150    -1.330525585
 H       -3.304497691    14.523862266     1.057787820
 H       -1.755909882    11.942689104     1.895656657
 H       -0.424959046    12.086701663     3.788046989
 H        0.532833058    13.348458805     5.692913632
 H       -1.662199257    16.849106872     4.465701871
 H       -2.581621043    15.610634506     2.554461099
 H        0.980122591    17.618412132     6.979660175
 H       -0.563198392    17.893876692     6.121250402
 H        0.902008409    17.415811248     5.213882612
 H       -5.430520823    15.937439853     8.040246261
 H       -5.753331659    14.449184101     7.129200864
 H       -4.645629330    15.687589915     6.452955498
 H       -2.160744425    12.846106613     9.209552898
 H       -1.055333969    10.922459716     8.141526972
 H       -3.278104405    11.652869967     4.523792512
 H       -4.326100144    13.604447681     5.548186170
 H       -0.711469557     9.503942991     6.370827792
 H       -2.344579174    10.015794756     3.756440470
 H        1.495002337     9.170292223     5.254821952
 H        3.053484275     8.177122509     6.838930178
 H        1.158297627     4.342125170     6.366217185
 H       -0.424040054     5.290188995     4.787593145
 H        3.905032905     6.379271315     8.059535760
 H        2.510030087     3.639575890     7.692534343
 H        5.262249186     5.671068914     9.387020123
 H        6.839118760     4.716755114    10.967247706
 H        4.912569072     0.843796644    10.491657795
 H        3.357435020     1.841070936     8.909742235
 H       -0.735684205    14.412126862     7.657044561
 H        0.017524911    15.829697124     8.438060235
 H       -1.902516989    17.244019208     8.016245983
 H       -2.505829929    16.216447072     6.718088594
 H       -2.319802773    14.902301500     9.466972715
 H       -3.523148974    16.192252470     9.301802558
 H        2.268554389    -1.026394456     0.086199645
 H        2.269354064     0.583486988     0.849331178
 H        2.279358954     0.435708145    -0.927932484
 H        8.938283617     2.783732052    13.616010245
 H        7.665939152     4.003483643    13.364464804
 H        8.910063004     3.737091791    12.113156005
 H        5.533940811     1.748172424    13.916914476
 H        5.590475146     0.240162713    12.972644088
 H        6.878180448     0.600512020    14.149923756
 H        8.845767420     1.206206744    10.348651627
 H        8.972659247     0.204825927    11.817982298
 H        7.651325646    -0.077333861    10.655236081
 H       -2.665818309     6.479414719     4.058420381
 H       -2.815109425     7.307880000     2.486769420
 H       -1.650016845     5.972833584     2.677603343
 H        0.998014585     9.346810262     2.502555128
 H        0.647225194     7.803249636     1.682395954
 H       -0.463254913     9.184823384     1.490136831
 H       -2.075547520    13.494523489    -2.084281792
 H       -3.531631063    12.839208161    -2.876281789
 H       -3.594858971    14.421136015    -2.057964439
 H       -5.860790405    12.170573498     0.728461724
 H       -5.931689602    13.597470761    -0.331920159
 H       -6.006718057    11.964880802    -1.038456749
 H       -0.287318794    -0.350216223    -2.451428865
 H       -0.288996003    -1.905883558    -1.580672332
 H       -1.738687912    -0.868341465    -1.561294709
 H       -0.304050213    -0.361997780     2.446423957
 H       -1.704882816    -0.986381702     1.538738173
 H       -0.187789934    -1.915982305     1.582098187

