139   

Si        0.000000000     0.000000000     0.000000000
 C        1.869355093     0.000000000     0.000000000
 C       -0.633292966     1.734344691     0.000000000
 C        0.069114279     2.750473968     0.657173562
 C       -0.410312499     4.059954585     0.656394712
 C       -1.605080849     4.382770891     0.006932763
 C       -2.309730658     3.363153771    -0.646167238
 C       -1.831797229     2.055085402    -0.649493870
 C       -2.146716621     5.737422748    -0.021416451
 C       -1.573613426     6.805272793     0.559362308
 C       -2.120628892     8.158019184     0.527349078
 C       -1.420928894     9.184875259     1.175449469
 C       -1.905160866    10.490649365     1.170956473
 C       -3.107203769    10.798133838     0.521953426
 C       -3.807924868     9.775499838    -0.125593926
 C       -3.316717392     8.470499462    -0.124552305
Si       -3.754238368    12.525704108     0.512207134
 C       -5.541261314    12.468120267     0.109785414
 C       -6.118865859    13.059173278    -0.944052017
 C       -7.552226546    12.993847488    -1.237834010
 C       -8.040338561    13.656263870    -2.375278961
 C       -9.386088588    13.625572523    -2.697532400
 C      -10.301706401    12.951088275    -1.861382129
 C       -9.816351955    12.284506208    -0.724671683
 C       -8.455990038    12.294149533    -0.435863434
 N      -11.663572953    12.947920800    -2.232532493
 C      -12.254108732    14.272995372    -2.527260182
 C      -12.557227036    12.064796650    -1.466651670
 C      -11.760418165    15.435320025    -1.651076139
 C      -12.051213027    15.221731433    -0.154977160
 N      -11.263487106    16.109890313     0.719719191
 C      -11.458738574    17.494463855     0.562582663
 C      -12.732246272    17.989775858     0.207506141
 C      -12.937181825    19.350628572     0.049826626
 C      -11.907065873    20.272528405     0.286614365
 C      -10.656083898    19.782575181     0.670775168
 C      -10.428708187    18.420261033     0.817020909
 C       -9.874164718    15.649943464     0.892605441
 C      -12.180758851    21.698349509     0.104072077
 C      -11.281449107    22.672351939     0.298679321
Si      -11.620849571    24.457128110     0.071120755
 C      -13.373009430    24.687771165    -0.460432591
 C      -13.697196926    25.066007444    -1.766413835
 C      -15.028905857    25.234585041    -2.146230675
 C      -16.064784711    25.018185105    -1.234052175
 C      -15.738067255    24.632044047     0.073170151
 C      -14.410073406    24.467117596     0.456412361
 C      -17.471344805    25.182159946    -1.586298089
 C      -17.918771846    25.547153386    -2.799750250
 C      -19.325523231    25.711026703    -3.151608111
 C      -20.361180496    25.498470215    -2.237535207
 C      -21.692512736    25.666698069    -2.616792208
 C      -22.017928501    26.058631677    -3.919620628
 C      -20.981824683    26.272197628    -4.837637870
 C      -19.653424738    26.096950097    -4.457962599
Si      -23.779191802    26.282744655    -4.426729289
 C      -24.822735430    26.739090594    -2.944219437
 C      -23.906693012    27.646600511    -5.699013980
 C      -24.389411494    24.675026072    -5.157637083
 C      -11.341984591    25.346654675     1.690802418
 C      -10.443107176    25.127309906    -1.216139718
 C       -3.569653785    13.292299555     2.206022105
 C       -2.794362922    13.515666115    -0.746078733
 C       -0.603436416    -0.905978294    -1.520012099
 C       -0.632954053    -0.854277459     1.536679755
 H        1.008451042     2.559397742     1.183476410
 H        0.157627780     4.833322426     1.170619607
 H       -3.242476669     3.592558731    -1.158422202
 H       -2.424475222     1.303071622    -1.177609667
 H       -3.089510985     5.840340837    -0.567437856
 H       -0.631261032     6.704633875     1.105476341
 H       -0.487169413     8.962424153     1.688441358
 H       -1.315791760    11.250381242     1.691346290
 H       -4.751422205     9.959751034    -0.650453465
 H       -3.878820958     7.692331238    -0.638137835
 H       -6.135641877    11.887175624     0.833684628
 H       -5.552847104    13.645053495    -1.680360444
 H       -7.348602801    14.195105633    -3.024060198
 H       -9.742826200    14.114480824    -3.601172722
 H      -10.491267190    11.753968434    -0.060532948
 H       -8.099853063    11.755263818     0.443846837
 H      -13.524324995    11.990163071    -1.995197506
 H      -12.748467065    12.394111471    -0.433455535
 H      -12.133021336    11.044592579    -1.442141930
 H       -9.841291885    14.547436379     0.950719464
 H       -9.482774428    16.035745585     1.850977822
 H       -9.201159435    15.959590557     0.076100469
 H      -13.561348707    17.306282656     0.050600249
 H      -13.922816555    19.709704761    -0.250028695
 H       -9.837571972    20.477625535     0.863028637
 H       -9.441733082    18.083898127     1.118416765
 H      -13.213928397    21.901536449    -0.214787278
 H      -10.252737591    22.445745593     0.616863840
 H      -12.931376113    25.244452939    -2.526310693
 H      -15.254580854    25.535565004    -3.167575277
 H      -16.530261058    24.458101866     0.799003985
 H      -14.215725655    24.163225550     1.489700647
 H      -18.173195261    24.983293102    -0.770936207
 H      -17.217325433    25.746364193    -3.615392271
 H      -20.134789703    25.197819027    -1.216053693
 H      -22.458091912    25.484593309    -1.857445669
 H      -21.175233233    26.579653579    -5.869057637
 H      -18.862542645    26.265597459    -5.186631667
 H      -12.015296724    14.494786520    -3.596228291
 H      -13.362098339    14.200654237    -2.469513403
 H      -10.671705089    15.586962378    -1.798675677
 H      -12.227580606    16.379871719    -1.993885927
 H      -13.131676084    15.372828734     0.062472002
 H      -11.827223401    14.171196503     0.140842557
 H        2.268241891    -1.028058431    -0.063779280
 H        2.279787213     0.456965874     0.917374538
 H        2.269005852     0.565211959    -0.861564032
 H      -25.865224367    26.952529123    -3.240541473
 H      -24.429830959    27.641039810    -2.440748388
 H      -24.852389657    25.925896833    -2.198081670
 H      -23.476686120    28.590454641    -5.317250455
 H      -23.372756168    27.389856886    -6.630515566
 H      -24.959672033    27.846021174    -5.966414483
 H      -24.319083136    23.848939720    -4.427240250
 H      -25.444220142    24.751725365    -5.474857345
 H      -23.794500848    24.383274988    -6.041685181
 H      -11.974113486    24.931187844     2.495949164
 H      -10.291143850    25.264674729     2.019983718
 H      -11.581596524    26.421495490     1.600885030
 H      -10.523106155    24.569825229    -2.166752130
 H      -10.645193631    26.191737270    -1.430359137
 H       -9.394392761    25.049931450    -0.878006716
 H       -4.071744187    12.683843369     2.979905504
 H       -2.508715705    13.389148783     2.495437337
 H       -4.016898582    14.302349960     2.236867071
 H       -2.890734280    13.081252075    -1.758095378
 H       -3.147917309    14.560904213    -0.792868976
 H       -1.717162820    13.538586229    -0.501143791
 H       -0.313580831    -0.374155476    -2.444343616
 H       -0.174879292    -1.922641822    -1.574409055
 H       -1.702380842    -1.011251291    -1.525466137
 H       -0.286628680    -0.342825285     2.452783995
 H       -1.737484183    -0.865110177     1.564236777
 H       -0.287014112    -1.901572593     1.587043641

