139   

Si        0.000000000     0.000000000     0.000000000
 C        1.868600232     0.000000000     0.000000000
 C       -0.653773868     1.724904290     0.000000000
 C        0.178638439     2.830324248     0.196812259
 C       -0.346046984     4.123223441     0.191362633
 C       -1.713004806     4.337769435     0.000381054
 C       -2.546397894     3.227903271    -0.194605049
 C       -2.024835342     1.937804323    -0.198233228
 C       -2.310859745     5.668060380    -0.013839073
 C       -1.632169559     6.815828549     0.151290157
 C       -2.241405782     8.141670499     0.135130407
 C       -3.611401759     8.337125826    -0.057372472
 C       -4.153872006     9.622027677    -0.065911611
 C       -3.334390561    10.738987868     0.116261813
 C       -1.959045424    10.547605403     0.305022011
 C       -1.420591941     9.264097027     0.310488332
Si       -4.015200981    12.453951489     0.111212642
 C       -3.197300121    13.273582324    -1.306969875
 C       -2.419238024    14.360991361    -1.242556159
 C       -1.788260036    14.976705669    -2.412876817
 C       -0.990358389    16.116500151    -2.233546850
 C       -0.374294722    16.731569378    -3.312312143
 C       -0.532137441    16.203714003    -4.606536557
 C       -1.305713090    15.051298147    -4.788590379
 C       -1.909975332    14.438647047    -3.695961017
 N        0.129895188    16.887119336    -5.670603645
 C       -0.451515640    18.213838833    -5.967364571
 C        0.355057530    16.080577676    -6.883480926
 C       -1.913591586    18.193418570    -6.454241758
 C       -2.898208621    18.428675771    -5.293068145
 N       -4.311666173    18.090378222    -5.558512123
 C       -4.611531076    16.703308820    -5.303787477
 C       -5.413069838    16.456017203    -4.180637266
 C       -5.756958864    15.152159350    -3.851852785
 C       -5.274418634    14.071301188    -4.604229615
 C       -4.478292136    14.330067751    -5.724020590
 C       -4.167122662    15.636321201    -6.089974702
 C       -4.794696020    18.529290568    -6.880883774
 C       -5.668239522    12.713193065    -4.214200212
 C       -5.272187669    11.605767909    -4.853753095
Si       -5.733556956     9.886781536    -4.409618635
 C       -4.176572227     8.974515773    -4.035904322
 C       -3.039230388     9.680451571    -3.623457428
 C       -1.856584313     9.004199820    -3.337898264
 C       -1.788110285     7.608584986    -3.438401492
 C       -2.928014143     6.906838216    -3.840109577
 C       -4.112034109     7.581687103    -4.135679132
 C       -0.525506355     6.947448380    -3.128286881
 C       -0.317363655     5.621452887    -3.191242749
 C        0.951473803     4.972747531    -2.878125853
 C        2.081683182     5.691820623    -2.477650596
 C        3.276721154     5.036475626    -2.186904697
 C        3.374992154     3.646136709    -2.313089377
 C        2.246927789     2.924386850    -2.720503969
 C        1.048916050     3.580517656    -2.994906616
Si        4.967617942     2.799358610    -1.922625314
 C        6.400506348     3.819431970    -2.553372006
 C        5.079093340     2.612078910    -0.065672203
 C        5.019104232     1.111005807    -2.724720593
 C       -6.864509256     9.803710469    -2.928374662
 C       -6.585519376     9.131881037    -5.891770401
 C       -5.862548973    12.488058909    -0.157137647
 C       -3.616374948    13.279284416     1.737587952
 C       -0.598384677    -0.874707263    -1.541471313
 C       -0.629113527    -0.877368073     1.524916036
 H        1.257416496     2.726932120     0.346400581
 H        0.326648635     4.968150528     0.331698513
 H       -3.613621109     3.374615637    -0.347807525
 H       -2.722958975     1.112253220    -0.358917706
 H       -3.392418157     5.681035949    -0.177866888
 H       -0.549794292     6.807605620     0.308044204
 H       -4.269030097     7.483470965    -0.210265053
 H       -5.232350483     9.710419853    -0.219272499
 H       -1.269977616    11.386163264     0.443402587
 H       -0.349992627     9.132123993     0.454465671
 H       -3.411226996    12.783869689    -2.273898537
 H       -2.194100011    14.879886094    -0.303066421
 H       -0.858376648    16.532075651    -1.234989881
 H        0.248002992    17.611598092    -3.164162676
 H       -1.447211416    14.628298332    -5.778965495
 H       -2.508357237    13.539079929    -3.858610146
 H        1.064095616    16.620058682    -7.535261289
 H       -0.552090570    15.859808059    -7.466053446
 H        0.834458220    15.126367490    -6.601503542
 H       -4.609611801    19.610885241    -6.987574207
 H       -5.887579583    18.372985213    -6.921834536
 H       -4.341547061    18.006380628    -7.735529096
 H       -5.759616783    17.296229112    -3.579078974
 H       -6.390431910    14.969325591    -2.984764151
 H       -4.105141289    13.506027459    -6.332147969
 H       -3.570847797    15.822062737    -6.978531346
 H       -6.328003841    12.690197100    -3.337147036
 H       -4.609374768    11.663156902    -5.733652996
 H       -3.036851092    10.770163380    -3.513293191
 H       -0.981564200     9.569097357    -3.019353273
 H       -2.899766014     5.821700886    -3.920443123
 H       -4.970212742     6.980901367    -4.446099465
 H        0.279771174     7.624269149    -2.826940775
 H       -1.121948198     4.940951886    -3.483521786
 H        2.034328897     6.775385259    -2.384191395
 H        4.122330964     5.652039556    -1.869022901
 H        2.264857202     1.837986145    -2.841291121
 H        0.178148341     3.000598962    -3.297156726
 H       -0.354226944    18.839381682    -5.051382969
 H        0.196936381    18.695556042    -6.733548424
 H       -2.059821050    18.965017008    -7.230963195
 H       -2.133267041    17.228203943    -6.946109104
 H       -2.569506266    17.857674307    -4.392276214
 H       -2.886690008    19.504812138    -5.003115078
 H        2.269721035    -1.028604173    -0.008207480
 H        2.276398761     0.506638871     0.892724543
 H        2.263693880     0.519108396    -0.891560937
 H        7.363706725     3.308485562    -2.378197085
 H        6.453544014     4.804023553    -2.056994838
 H        6.313614942     4.000605874    -3.640200422
 H        5.042124915     3.593151478     0.440484364
 H        4.242735534     2.005790978     0.327732944
 H        6.019735987     2.117515546     0.232442622
 H        4.883112672     1.184116201    -3.818865711
 H        5.989341433     0.614863067    -2.545050564
 H        4.230946837     0.444170945    -2.332991303
 H       -6.364933837    10.175661804    -2.015350902
 H       -7.779772894    10.401210527    -3.083385138
 H       -7.176716594     8.762896567    -2.727373356
 H       -5.915512558     9.100393278    -6.769806316
 H       -6.913263450     8.097709041    -5.688288704
 H       -7.479932593     9.713340001    -6.178783795
 H       -6.143615402    12.064691293    -1.137805941
 H       -6.393400235    11.915918600     0.623772307
 H       -6.244376451    13.524859278    -0.124967955
 H       -2.529201976    13.291047583     1.932745065
 H       -3.971756973    14.324585541     1.758570880
 H       -4.094015864    12.749104096     2.581316242
 H       -0.253127394    -0.358002856    -2.455045321
 H       -0.225128248    -1.912668546    -1.583978033
 H       -1.700605423    -0.916874119    -1.582602601
 H       -0.285676659    -0.373800974     2.446829861
 H       -1.732976762    -0.895971928     1.553611458
 H       -0.276339010    -1.922482309     1.564477802

