139   

Si        0.000000000     0.000000000     0.000000000
 C        1.869317537     0.000000000     0.000000000
 C       -0.650526833     1.727660441     0.000000000
 C        0.174474231     2.816518366    -0.297674347
 C       -0.334508832     4.115237324    -0.292861344
 C       -1.678488324     4.354807105     0.004786385
 C       -2.505016843     3.261916562     0.299116153
 C       -1.999770773     1.964615313     0.295541694
 C       -2.254820896     5.695355003     0.021850960
 C       -1.574132834     6.823996474    -0.240560122
 C       -2.150939788     8.164435197    -0.223373179
 C       -1.324248189     9.257337611    -0.517251599
 C       -1.829818995    10.554787107    -0.513135233
 C       -3.179277153    10.788708443    -0.220750392
 C       -4.006645832     9.700011627     0.072568691
 C       -3.495601510     8.402488121     0.073750343
Si       -3.851169321    12.507566068    -0.214807230
 C       -5.676789192    12.417962061    -0.331884781
 C       -6.538517332    12.898091029     0.574381240
 C       -7.994585048    12.810325971     0.451004264
 C       -8.795659780    13.351370216     1.467796365
 C      -10.177380463    13.294261758     1.398895078
 C      -10.812403274    12.642602174     0.318923991
 C      -10.010385462    12.098421135    -0.700877220
 C       -8.626484515    12.204755705    -0.637997397
 N      -12.218251147    12.598658845     0.272558196
 C      -12.911843439    12.378801705     1.554753171
 C      -12.828206999    11.856710286    -0.842533806
 C      -12.455519689    11.104148799     2.294173794
 C      -13.562643209    10.538181378     3.201631721
 N      -14.350011711     9.439236708     2.598005002
 C      -15.004179164     9.795426976     1.388318016
 C      -15.973121426    10.817429817     1.449579383
 C      -16.645004084    11.209012527     0.303628921
 C      -16.401924963    10.579842629    -0.927521705
 C      -15.459576757     9.550469624    -0.976744933
 C      -14.772088241     9.150886764     0.164757762
 C      -13.609636644     8.165394136     2.573329543
 C      -17.140036041    11.032890034    -2.109237771
 C      -16.990718802    10.508167843    -3.332181427
Si      -17.891965905    11.043268231    -4.836110080
 C      -18.845663087     9.604095965    -5.484608993
 C      -19.169354240     8.530940521    -4.648088349
 C      -19.890471384     7.443297708    -5.139440654
 C      -20.309938387     7.408001051    -6.472105724
 C      -19.988249984     8.487064739    -7.306441604
 C      -19.265489718     9.573525521    -6.820054309
 C      -21.066232869     6.291668733    -7.030129227
 C      -21.438409278     5.199247955    -6.341531470
 C      -22.194737001     4.083315962    -6.900376554
 C      -22.611068616     4.047615911    -8.234192190
 C      -23.332280985     2.960804317    -8.726845367
 C      -23.660916734     1.886582471    -7.892679330
 C      -23.245398961     1.920417311    -6.555804149
 C      -22.518817026     3.004028818    -6.068069935
Si      -24.616092028     0.448560489    -8.547625573
 C      -25.800889999     1.022204728    -9.875154958
 C      -23.407127153    -0.781541875    -9.266292285
 C      -25.593162243    -0.355662749    -7.171592945
 C      -19.083463471    12.432435880    -4.469969889
 C      -16.627215074    11.599870569    -6.093256501
 C       -3.299325766    13.356283509     1.354098198
 C       -3.222077576    13.444166298    -1.704255507
 C       -0.627239544    -0.866818717    -1.531872336
 C       -0.606473914    -0.887395375     1.529695374
 H        1.233920761     2.692709681    -0.538274679
 H        0.330058057     4.945546129    -0.525406125
 H       -3.555251400     3.426305155     0.533314235
 H       -2.692711622     1.152512761     0.532578359
 H       -3.319365819     5.732303616     0.271501508
 H       -0.509661767     6.787264898    -0.490318808
 H       -0.274227807     9.093054331    -0.751417883
 H       -1.137871834    11.368013970    -0.748254731
 H       -5.068601491     9.825544113     0.309586669
 H       -4.158959494     7.571707817     0.307506589
 H       -6.034312106    11.921691995    -1.248714856
 H       -6.212290261    13.400223670     1.494942987
 H       -8.325052485    13.837833236     2.322686961
 H      -10.772714461    13.755705841     2.181648496
 H      -10.458712052    11.592748782    -1.550334565
 H       -8.028437760    11.788433555    -1.450398354
 H      -13.929207841    11.955902555    -0.798580632
 H      -12.589509043    10.781094481    -0.843547111
 H      -12.506727451    12.303810203    -1.799918280
 H      -13.323213808     7.903560323     3.607353201
 H      -12.699020994     8.179045341     1.954310624
 H      -14.275274063     7.361584123     2.212433744
 H      -16.197608763    11.288115719     2.404594307
 H      -17.384412330    12.008181380     0.364463003
 H      -15.257095306     9.041053683    -1.920449862
 H      -14.044222147     8.348202808     0.089578838
 H      -17.838427976    11.852686703    -1.895550341
 H      -16.281053065     9.684709356    -3.516172146
 H      -18.870432263     8.504841830    -3.594820146
 H      -20.126540758     6.617597678    -4.470236575
 H      -20.305537086     8.478778121    -8.347527381
 H      -19.042192003    10.385301847    -7.517638367
 H      -21.325167590     6.398273855    -8.087741050
 H      -21.179935385     5.092379285    -5.283713952
 H      -22.372766858     4.872805332    -8.903041076
 H      -23.628255573     2.989831439    -9.779233146
 H      -23.473311899     1.110516582    -5.857335713
 H      -22.203113373     3.010379940    -5.026281519
 H      -12.753719391    13.275542988     2.195362043
 H      -14.007699508    12.344641990     1.353380087
 H      -12.136609949    10.339045766     1.560200472
 H      -11.547428933    11.322549309     2.886382346
 H      -13.121612879    10.155747996     4.149892242
 H      -14.272667153    11.339664208     3.505357655
 H        2.267318345    -1.028319517     0.067934183
 H        2.271495137     0.567568514     0.858461112
 H        2.277546563     0.450518063    -0.921869841
 H      -26.433812451     0.190266107   -10.231908384
 H      -25.268322071     1.430727988   -10.751669008
 H      -26.474144411     1.812216959    -9.495637324
 H      -22.817836811    -0.334102496   -10.086850778
 H      -22.691125329    -1.135083182    -8.502599716
 H      -23.927028849    -1.666977138    -9.672218058
 H      -26.256625740     0.373977439    -6.672827285
 H      -26.229395443    -1.171645454    -7.558233918
 H      -24.933688046    -0.789831165    -6.399924104
 H      -19.841551374    12.126952220    -3.725572622
 H      -18.560067922    13.320643372    -4.073543755
 H      -19.626789432    12.744549045    -5.380202761
 H      -15.958774141    10.770229347    -6.386759093
 H      -17.107195256    11.980689203    -7.011702303
 H      -15.992952618    12.410000947    -5.689303584
 H       -3.660032646    12.818288018     2.249776165
 H       -2.197579816    13.401170142     1.420400565
 H       -3.679308012    14.392005865     1.407262716
 H       -3.471373353    12.918968583    -2.644066139
 H       -3.671766447    14.452292964    -1.759113851
 H       -2.125925757    13.569471082    -1.673481573
 H       -0.282166887    -0.357879963    -2.450157827
 H       -0.274073907    -1.911972383    -1.576767135
 H       -1.731331270    -0.885013894    -1.561474041
 H       -0.286022568    -0.362555830     2.448151579
 H       -1.708159173    -0.954128727     1.554135597
 H       -0.210282259    -1.916997662     1.579362052

