139   

Si        0.000000000     0.000000000     0.000000000
 C        1.869460659     0.000000000     0.000000000
 C       -0.639022029     1.732281922     0.000000000
 C        0.132501529     2.782615086    -0.508103534
 C       -0.356376645     4.088744277    -0.505008497
 C       -1.628582058     4.374152859    -0.001849513
 C       -2.402257904     3.320221868     0.502006682
 C       -1.915678560     2.015422298     0.502294708
 C       -2.180989489     5.724764949     0.021564232
 C       -1.543199286     6.819182192    -0.427466746
 C       -2.093806201     8.170328139    -0.404914232
 C       -3.365966752     8.457908793     0.097880011
 C       -3.853553736     9.764721828     0.100309575
 C       -3.069397533    10.813488401    -0.388145069
 C       -1.792433070    10.529834647    -0.890652007
 C       -1.313799421     9.222651348    -0.902375193
Si       -3.687225094    12.552677472    -0.397879888
 C       -2.205395182    13.628312854    -0.376294026
 C       -1.851478246    14.534575311    -1.296069356
 C       -0.638562514    15.353898144    -1.191354116
 C       -0.348731637    16.278675493    -2.204695482
 C        0.789726294    17.071338596    -2.140075498
 C        1.651421981    16.965365174    -1.038761259
 C        1.365274693    16.052636049    -0.017369880
 C        0.229233722    15.256149405    -0.099359689
 N        2.809253549    17.818111656    -1.042503791
 C        3.959735421    17.187132991    -1.721012828
 C        3.148890150    18.352837886     0.290103879
 C        4.461345373    15.888726672    -1.064699454
 C        5.633796045    15.257620954    -1.832245636
 N        5.375034201    14.951045749    -3.253151562
 C        4.109772922    14.397904087    -3.550176456
 C        3.654791396    13.305331662    -2.782580656
 C        2.419362717    12.734994429    -3.043016280
 C        1.609381466    13.208881581    -4.085513783
 C        2.073588659    14.278066864    -4.855361979
 C        3.307084757    14.866087729    -4.603386340
 C        5.880992002    15.979873820    -4.176217031
 C        0.310487740    12.575878945    -4.325019632
 C       -0.531783987    12.956995478    -5.294262495
Si       -2.165761238    12.217144304    -5.653599669
 C       -2.149346302    11.565063247    -7.379527200
 C       -0.938212305    11.320262364    -8.037483267
 C       -0.930439713    10.828004400    -9.340352785
 C       -2.129852173    10.561526584   -10.013324233
 C       -3.337432238    10.802298939    -9.351179676
 C       -3.348767696    11.297435715    -8.047867537
 C       -2.070204917    10.046601443   -11.377570834
 C       -3.142852891     9.753267995   -12.131991580
 C       -3.083427647     9.238376764   -13.496143860
 C       -1.876938944     8.997166180   -14.159425995
 C       -1.866733142     8.504490614   -15.463761432
 C       -3.065680636     8.250080720   -16.138667731
 C       -4.275739516     8.491867267   -15.476701402
 C       -4.282917005     8.976531011   -14.170932781
Si       -3.048555250     7.597738176   -17.865709893
 C       -1.568100730     8.273497276   -18.786225516
 C       -2.950086326     5.733313101   -17.789010607
 C       -4.605800634     8.111689096   -18.763676552
 C       -2.538834322    10.787012747    -4.514279786
 C       -3.454543813    13.558280818    -5.468782749
 C       -4.778633056    12.826902647    -1.882447675
 C       -4.660427422    12.898635901     1.159942086
 C       -0.632522217    -0.858332277    -1.534158787
 C       -0.604091660    -0.898018095     1.524596552
 H        1.134267886     2.622063270    -0.916295517
 H        0.265741403     4.888268402    -0.903650309
 H       -3.396160066     3.520424655     0.898220100
 H       -2.564876798     1.235164484     0.909178265
 H       -3.187707115     5.800011571     0.443259276
 H       -0.536882812     6.742702654    -0.850176581
 H       -3.990933629     7.658231068     0.491230867
 H       -4.857466844     9.927912350     0.501032670
 H       -1.134804465    11.314645629    -1.282739929
 H       -0.320927843     9.018594288    -1.299924095
 H       -1.582995033    13.462197166     0.520864591
 H       -2.435927054    14.728184340    -2.203624435
 H       -1.014841057    16.369056077    -3.062461703
 H        1.020877240    17.781124855    -2.933117608
 H        2.028255263    15.961066156     0.838480441
 H        0.024196360    14.544842315     0.701212428
 H        3.891433749    19.158925707     0.160763481
 H        3.554929558    17.615305107     0.997326748
 H        2.246514616    18.805242479     0.737026932
 H        6.938355226    16.189581983    -3.937988391
 H        5.322745614    16.928683280    -4.149995809
 H        5.862741017    15.583905676    -5.207987167
 H        4.278498081    12.909259792    -1.985629192
 H        2.075387080    11.903025938    -2.427461832
 H        1.461723573    14.669525322    -5.669857357
 H        3.624491658    15.702914059    -5.217165296
 H        0.088385242    11.756454272    -3.629192883
 H       -0.276528031    13.789804896    -5.970388487
 H        0.029327442    11.506322415    -7.559102350
 H        0.020813856    10.646883033    -9.837615133
 H       -4.283311952    10.602658788    -9.851174005
 H       -4.323450612    11.465600429    -7.581825831
 H       -1.058278907     9.906230623   -11.769175977
 H       -4.154597118     9.893148599   -11.739917238
 H       -0.930132006     9.191966446   -13.658611452
 H       -0.891715501     8.333469031   -15.928491622
 H       -5.243287292     8.312460795   -15.953350946
 H       -5.233996485     9.155498739   -13.672636634
 H        3.638137973    16.980365512    -2.769825250
 H        4.776937831    17.937941742    -1.774641955
 H        4.770956821    16.080579098    -0.021491619
 H        3.622122782    15.163939290    -1.000848955
 H        6.530480164    15.911342273    -1.759475853
 H        5.916192413    14.294007078    -1.342068293
 H        2.268399742    -1.027285991     0.075533268
 H        2.269685608     0.574778100     0.854747910
 H        2.278933780     0.444929741    -0.923876373
 H       -1.576997313     7.956784388   -19.844263797
 H       -0.617601266     7.925515716   -18.345496047
 H       -1.558352960     9.378480568   -18.770418744
 H       -2.039491932     5.399915380   -17.259450430
 H       -3.816695835     5.306780664   -17.252486055
 H       -2.930848181     5.289217572   -18.799640528
 H       -4.733412554     9.209231555   -18.746532234
 H       -4.578099472     7.797650665   -19.822267509
 H       -5.507150629     7.663288125   -18.310579340
 H       -1.885922887     9.921250116    -4.732910701
 H       -2.383703197    11.052017766    -3.452489864
 H       -3.582230162    10.441381682    -4.620129265
 H       -3.300134402    14.364808517    -6.207811453
 H       -4.474784995    13.164732115    -5.617052750
 H       -3.413620321    14.016573014    -4.463781304
 H       -4.272569136    12.538577410    -2.821539817
 H       -5.702824760    12.224923697    -1.814847483
 H       -5.077670535    13.886456691    -1.972254534
 H       -4.069474442    12.667689506     2.064512828
 H       -4.952699814    13.962865537     1.218879734
 H       -5.585306067    12.297896927     1.203229264
 H       -0.286986018    -0.348238570    -2.451614737
 H       -0.284533275    -1.905090378    -1.582913343
 H       -1.736935628    -0.871131604    -1.562029828
 H       -0.307178485    -0.364846272     2.445979366
 H       -1.703840109    -0.993591215     1.535186410
 H       -0.183344991    -1.917680152     1.580658483

