139   

Si        0.000000000     0.000000000     0.000000000
 C        1.869511477     0.000000000     0.000000000
 C       -0.614486844     1.739429362     0.000000000
 C        0.014562639     2.698244773    -0.802746286
 C       -0.437073140     4.016109640    -0.814297064
 C       -1.514076815     4.411124182    -0.014458692
 C       -2.141457622     3.450634485     0.787764975
 C       -1.702449836     2.128241819     0.789780517
 C       -2.014756858     5.781857497    -0.000089948
 C       -1.496862143     6.775537302    -0.741122647
 C       -1.973644927     8.152875187    -0.749129315
 C       -3.045580169     8.592471248     0.032960701
 C       -3.461152087     9.922488196    -0.013015232
 C       -2.830180599    10.833546911    -0.868339635
 C       -1.765463098    10.392314174    -1.662099327
 C       -1.341573764     9.067624794    -1.600906729
Si       -3.379188208    12.591802867    -0.929451987
 C       -3.264283524    13.346279677     0.733697658
 C       -2.843710415    12.720374722     1.840630679
 C       -2.765940039    13.359845526     3.155697821
 C       -2.310321732    12.611907054     4.252126702
 C       -2.221412210    13.178516881     5.513758594
 C       -2.577152126    14.527364205     5.709455512
 C       -3.010548855    15.285441229     4.610821784
 C       -3.085002807    14.705715101     3.349753308
 N       -2.467688644    15.058206429     7.020927922
 C       -3.267809243    14.349147835     8.044657581
 C       -2.553769648    16.524397529     7.132157380
 C       -4.656994697    13.846926336     7.607788564
 C       -5.511556495    14.949950923     6.958798379
 N       -6.885546572    14.552750293     6.625364291
 C       -7.093728854    13.616608524     5.593333137
 C       -6.058007647    13.146178888     4.764903089
 C       -6.320267826    12.222341547     3.761872361
 C       -7.628868897    11.811882742     3.479253449
 C       -8.663426591    12.315108075     4.276624930
 C       -8.411151666    13.194446340     5.317977138
 C       -7.747913710    14.393190988     7.811888892
 C       -7.872739016    10.834983526     2.414037282
 C       -9.096997178    10.398186193     2.090265019
Si       -9.561224613     9.192566413     0.797977711
 C       -8.113758858     8.538362591    -0.135655152
 C       -7.261655445     9.391913310    -0.847412019
 C       -6.172514152     8.877214450    -1.546983255
 C       -5.915578150     7.500094823    -1.564766987
 C       -6.770240759     6.651160395    -0.856745040
 C       -7.855104057     7.163555360    -0.148027007
 C       -4.765692738     6.995344261    -2.307887867
 C       -4.428920250     5.696309830    -2.379109202
 C       -3.286630508     5.165226354    -3.113548020
 C       -2.407202690     5.978262194    -3.834391407
 C       -1.328650265     5.423751871    -4.521101475
 C       -1.095999909     4.043589897    -4.485359099
 C       -1.973009751     3.228207743    -3.761548555
 C       -3.058780652     3.783445895    -3.088666818
Si        0.337111329     3.329195193    -5.401083174
 C        1.872118144     4.313471652    -4.983124204
 C        0.608067442     1.548379857    -4.897892712
 C       -0.013217965     3.423481303    -7.233188662
 C      -10.494016643     7.804092899     1.635406263
 C      -10.689319800    10.052221677    -0.422518955
 C       -2.336255721    13.591762453    -2.112245558
 C       -5.170024821    12.635141864    -1.465053218
 C       -0.631668681    -0.832813154    -1.551038544
 C       -0.615876430    -0.918184502     1.506558213
 H        0.866364450     2.453980469    -1.443453650
 H        0.057549772     4.740031836    -1.461165245
 H       -2.984422031     3.736327209     1.414106651
 H       -2.234114480     1.421062565     1.431126687
 H       -2.863561558     5.959880683     0.665256331
 H       -0.653702033     6.582352785    -1.413197707
 H       -3.565582623     7.894356718     0.687640234
 H       -4.302395185    10.210300452     0.626480706
 H       -1.234651132    11.058802406    -2.346756538
 H       -0.508595721     8.742579226    -2.221229828
 H       -3.585040197    14.400163821     0.761917812
 H       -2.517072386    11.670802658     1.845969001
 H       -2.028326074    11.567189727     4.113742412
 H       -1.863356591    12.590377606     6.355426341
 H       -3.287662853    16.329104708     4.727019244
 H       -3.420070429    15.314844976     2.508835643
 H       -2.235228256    16.822216535     8.146550093
 H       -3.554596502    16.941530283     6.944137857
 H       -1.838119751    16.985672526     6.427737560
 H       -7.379559318    15.006618897     8.649044268
 H       -7.821087349    13.348536931     8.155276106
 H       -8.762440070    14.757797617     7.567340058
 H       -5.032563142    13.483803158     4.906724088
 H       -5.488459464    11.841835786     3.164127871
 H       -9.694157349    12.014730773     4.083087284
 H       -9.240788202    13.565856964     5.911295216
 H       -6.961199125    10.494070995     1.906623638
 H       -9.984176175    10.772929597     2.631379970
 H       -7.419088176    10.474167204    -0.873963618
 H       -5.512859077     9.554327871    -2.088754702
 H       -6.593950133     5.576927148    -0.851689674
 H       -8.482104691     6.447054240     0.389521690
 H       -4.169648040     7.759990714    -2.814020576
 H       -5.025958574     4.938105895    -1.862472471
 H       -2.561692694     7.055799983    -3.862168164
 H       -0.680352219     6.107660009    -5.075059854
 H       -1.838105008     2.145364797    -3.691349450
 H       -3.727948391     3.133465630    -2.527605319
 H       -2.655347031    13.473054990     8.370190819
 H       -3.367747504    15.001567705     8.938981246
 H       -4.544920438    12.996887197     6.903866733
 H       -5.183544238    13.427389112     8.485010191
 H       -5.567923546    15.835140335     7.632756731
 H       -5.033915158    15.313221854     6.017687702
 H        2.269607268    -1.028036856     0.047209258
 H        2.267969988     0.551576968     0.871042907
 H        2.279869074     0.474591212    -0.908463096
 H        2.764144233     3.892398320    -5.478507995
 H        2.064830345     4.315070795    -3.895110062
 H        1.780132298     5.365335689    -5.305111894
 H        0.775885013     1.460377838    -3.808993961
 H       -0.260220310     0.916983704    -5.156585184
 H        1.490081225     1.120094218    -5.405466114
 H       -0.181231812     4.465235672    -7.559434473
 H        0.824648227     3.018385890    -7.826614711
 H       -0.918658347     2.847780883    -7.497913816
 H       -9.862240955     7.285700639     2.378958277
 H      -11.382295659     8.186212542     2.169355124
 H      -10.844776347     7.053562580     0.905748683
 H      -10.183540983    10.909099530    -0.902571066
 H      -11.005875367     9.362132830    -1.224884289
 H      -11.600242502    10.435505383     0.068839165
 H       -1.274386024    13.599885575    -1.806208205
 H       -2.387488023    13.189275415    -3.139040511
 H       -2.672159737    14.643254318    -2.153489014
 H       -5.814961028    12.086530162    -0.752958469
 H       -5.548360923    13.671026266    -1.521195344
 H       -5.301789332    12.177329968    -2.461279838
 H       -0.285026174    -0.308528800    -2.459912706
 H       -0.285829829    -1.878890829    -1.615065047
 H       -1.736131780    -0.843624784    -1.577080274
 H       -0.316528370    -0.406044542     2.438789247
 H       -1.716513768    -1.004743370     1.511127702
 H       -0.204989551    -1.942677444     1.545462204

