139   

Si        0.000000000     0.000000000     0.000000000
 C        1.869151297     0.000000000     0.000000000
 C       -0.650434368     1.727789039     0.000000000
 C        0.158357994     2.808815584    -0.364008224
 C       -0.348208366     4.108371845    -0.358815773
 C       -1.674590931     4.356404447     0.004220513
 C       -2.485218507     3.271515620     0.364499819
 C       -1.981898450     1.973411939     0.361509228
 C       -2.248378214     5.698018601     0.024545309
 C       -1.581910964     6.820135885    -0.295969423
 C       -2.157400488     8.161217722    -0.275084494
 C       -1.347895724     9.247557161    -0.633748943
 C       -1.853073685    10.545235472    -0.628757245
 C       -3.185526670    10.785489227    -0.271664978
 C       -3.995913523     9.703289659     0.086249106
 C       -3.484862836     8.405907691     0.087378059
Si       -3.860192801    12.500361459    -0.263033914
 C       -5.683741626    12.414879809    -0.409805183
 C       -6.558073479    12.889330734     0.486884043
 C       -8.012061510    12.802522377     0.334865554
 C       -8.830490182    13.336410768     1.342654044
 C      -10.210347102    13.279603195     1.246369730
 C      -10.819624978    12.703974948     0.111238892
 C      -10.004226273    12.160593466    -0.894377338
 C       -8.619946355    12.193787473    -0.764957480
 N      -12.231023727    12.668389303     0.057447991
 C      -12.914407065    13.952136444     0.325200192
 C      -12.831441051    11.904709620    -1.047970121
 C      -12.261277436    15.201048587    -0.290224899
 C      -12.155968582    15.119436866    -1.822925181
 N      -11.494161802    16.290796613    -2.428925087
 C      -10.164644403    16.532239129    -2.010715750
 C       -9.267853966    15.448013931    -1.920596666
 C       -7.959196195    15.649232407    -1.514557722
 C       -7.478864623    16.936371354    -1.231650154
 C       -8.361113895    18.012484229    -1.351112366
 C       -9.682738106    17.824000960    -1.739503324
 C      -12.383150098    17.462224437    -2.507766579
 C       -6.086747601    17.097548912    -0.805550304
 C       -5.530289524    18.280187559    -0.511845051
Si       -3.804124385    18.564793128     0.025852035
 C       -2.999891783    19.675510190    -1.209099915
 C       -3.443928320    19.685179690    -2.537325459
 C       -2.842701156    20.520162757    -3.475504487
 C       -1.779483842    21.357768233    -3.112766397
 C       -1.335854375    21.341515896    -1.787299005
 C       -1.938252715    20.509187949    -0.844347996
 C       -1.182595897    22.214572110    -4.132285432
 C       -0.163722292    23.064202707    -3.917436121
 C        0.432194365    23.920448995    -4.937964978
 C       -0.012146941    23.935885486    -6.262873518
 C        0.586590014    24.770471123    -7.206209803
 C        1.639790598    25.616041152    -6.842450655
 C        2.086607222    25.603165651    -5.514812351
 C        1.491698605    24.763366955    -4.576756153
Si        2.438810409    26.724530880    -8.084206457
 C        1.257037232    27.082339675    -9.487810678
 C        2.921490349    28.338418023    -7.273101972
 C        3.960457812    25.865061950    -8.745466184
 C       -3.850180541    19.377980424     1.707804503
 C       -2.822354731    16.980964739     0.116031918
 C       -3.348639533    13.327024399     1.331598952
 C       -3.223206265    13.472198713    -1.725680903
 C       -0.627669386    -0.865136259    -1.532673761
 C       -0.605037904    -0.891124499     1.528197274
 H        1.203647095     2.677845610    -0.657097276
 H        0.303314370     4.932624355    -0.643842579
 H       -3.521474315     3.442636761     0.650734320
 H       -2.661776285     1.167732370     0.652220631
 H       -3.298401457     5.741643962     0.329100095
 H       -0.532096199     6.777780818    -0.600559769
 H       -0.311266800     9.078047268    -0.919023165
 H       -1.174701348    11.353053894    -0.916800601
 H       -5.044463554     9.833922494     0.374616256
 H       -4.134739962     7.580401813     0.372732791
 H       -6.026912591    11.921963925    -1.334129990
 H       -6.249126445    13.386804805     1.415820671
 H       -8.375591490    13.803765412     2.216907240
 H      -10.828785514    13.675469420     2.047886865
 H      -10.438481894    11.708705875    -1.780436052
 H       -8.006801096    11.749887588    -1.551122311
 H      -13.914030524    11.793605821    -0.862178050
 H      -12.407623342    10.883877624    -1.058126267
 H      -12.692689919    12.356437534    -2.042429903
 H      -13.359444755    17.155047857    -2.919251630
 H      -11.954864142    18.193828487    -3.217089911
 H      -12.554046763    17.959630317    -1.540018547
 H       -9.604139667    14.439493409    -2.154564234
 H       -7.291882881    14.788043812    -1.422922043
 H       -8.016369395    19.025397439    -1.137494116
 H      -10.334013566    18.688611071    -1.812297388
 H       -5.537465006    16.148446506    -0.747232871
 H       -6.116136858    19.212286479    -0.580210253
 H       -4.270747630    19.051655827    -2.876688421
 H       -3.204317878    20.518594123    -4.502296238
 H       -0.512099892    21.982761322    -1.479352521
 H       -1.550086643    20.541868347     0.177156797
 H       -1.630989821    22.122437727    -5.126027645
 H        0.284832055    23.156499030    -2.923940083
 H       -0.833745654    23.291457869    -6.570750825
 H        0.196588718    24.735750520    -8.227222312
 H        2.905220280    26.242269912    -5.172466400
 H        1.854573389    24.766392153    -3.550509328
 H      -13.972576989    13.875398315    -0.007272369
 H      -12.950493220    14.068373814     1.435913721
 H      -12.836901035    16.097395987     0.005219870
 H      -11.246276952    15.349543691     0.137119398
 H      -11.579352444    14.212276511    -2.121150349
 H      -13.163507839    15.007444076    -2.278718905
 H        2.267543147    -1.028254381     0.066514727
 H        2.270961587     0.566568542     0.859433705
 H        2.278178956     0.452148772    -0.920671724
 H        1.694166836    27.800540020   -10.204281058
 H        0.312936328    27.519322157    -9.115042626
 H        1.002556386    26.168286549   -10.052355010
 H        2.047029514    28.827182336    -6.806260728
 H        3.679850567    28.190441371    -6.484599216
 H        3.343714498    29.045129867    -8.009364095
 H        3.701647740    24.904625985    -9.226721426
 H        4.479554221    26.485797766    -9.496683391
 H        4.681219359    25.644122456    -7.937849190
 H       -4.344562935    20.365177849     1.663360461
 H       -4.410560376    18.760767969     2.433137450
 H       -2.835901994    19.530799809     2.115072769
 H       -2.803411118    16.461339427    -0.859735416
 H       -1.773391257    17.175249338     0.402996165
 H       -3.248802558    16.285775818     0.861290909
 H       -3.663104874    12.730700846     2.207811610
 H       -2.251643756    13.440672911     1.391770534
 H       -3.797656393    14.331618067     1.432335979
 H       -3.425637164    12.945610822    -2.676002136
 H       -3.706014191    14.465497795    -1.790167400
 H       -2.133217783    13.635294048    -1.662269613
 H       -0.281135985    -0.356795710    -2.450650522
 H       -0.276399119    -1.910938394    -1.577600335
 H       -1.731824706    -0.881407498    -1.562726119
 H       -0.296042075    -0.360735969     2.447358787
 H       -1.705942974    -0.971380091     1.546540750
 H       -0.197138042    -1.915970143     1.582048027

