139   

Si        0.000000000     0.000000000     0.000000000
 C        1.867766392     0.000000000     0.000000000
 C       -0.601867676     1.744812652     0.000000000
 C       -0.275275835     2.585636283     1.070809533
 C       -0.717455096     3.906812500     1.094350777
 C       -1.510541562     4.414024924     0.060148102
 C       -1.837417068     3.570848662    -1.008887267
 C       -1.382999602     2.253956356    -1.043244251
 C       -1.993904886     5.791091048     0.047063912
 C       -1.731385931     6.693007247     1.007709848
 C       -2.205014471     8.072530144     1.012338293
 C       -1.846461634     8.895172272     2.087894185
 C       -2.271052302    10.219711804     2.142816605
 C       -3.082878752    10.747744683     1.131504079
 C       -3.453743843     9.924349847     0.063396609
 C       -3.021464973     8.599548135     0.007729352
Si       -3.638416096    12.501355403     1.214822782
 C       -5.430755567    12.590083242     1.589251706
 C       -6.342857688    13.160612615     0.792021350
 C       -7.776253769    13.233683448     1.087494146
 C       -8.616013920    13.863792818     0.156400307
 C       -9.979749501    13.963555011     0.380654066
 C      -10.536780634    13.439903099     1.560971994
 C       -9.709161605    12.794865598     2.486753407
 C       -8.345194681    12.675711319     2.235231781
 N      -11.951798031    13.585910026     1.711689768
 C      -12.341146042    14.975256743     2.047930220
 C      -12.588337050    12.585739808     2.586526671
 C      -11.992894758    15.411037690     3.484903795
 C      -11.475347562    16.859022304     3.579718791
 N      -10.028436485    17.040495638     3.327588050
 C       -9.172539544    16.148859064     4.009848313
 C       -9.454434773    15.811445076     5.351128837
 C       -8.629807883    14.938685469     6.042455638
 C       -7.477329286    14.406242340     5.448554218
 C       -7.176939258    14.777562225     4.135310655
 C       -7.993314867    15.650975209     3.429019906
 C       -9.716012707    17.284276929     1.908638441
 C       -6.637879411    13.487952431     6.220045211
 C       -5.519070372    12.926734589     5.744117302
Si       -4.422793442    11.771907118     6.650838395
 C       -4.420748503    10.214276052     5.653148217
 C       -5.311430027    10.081982182     4.581925374
 C       -5.331500158     8.920307383     3.813938738
 C       -4.471945007     7.857121259     4.104613223
 C       -3.585209889     7.987886980     5.181456387
 C       -3.558739699     9.151927142     5.947897102
 C       -4.469630587     6.627223008     3.318190479
 C       -5.282063503     6.410926652     2.269679542
 C       -5.310108139     5.198451358     1.460438480
 C       -4.472362451     4.106754561     1.698179817
 C       -4.539907676     2.969234269     0.892792310
 C       -5.446596262     2.902177609    -0.168950890
 C       -6.283313187     3.999328951    -0.413718969
 C       -6.210500609     5.134380582     0.387959216
Si       -5.561138346     1.413376666    -1.252420492
 C       -4.620960413    -0.013131585    -0.496359116
 C       -7.355949014     0.927923965    -1.450261425
 C       -4.827917672     1.833356093    -2.920763674
 C       -2.701544701    12.492571588     6.720816129
 C       -5.046794755    11.411673514     8.370781335
 C       -2.741836255    13.425998276     2.569759233
 C       -3.253444514    13.318625388    -0.423206377
 C       -0.623034464    -0.907889169    -1.511216059
 C       -0.650032906    -0.848816369     1.533951674
 H        0.333328916     2.244020624     1.912250820
 H       -0.441693348     4.543782891     1.932867177
 H       -2.454930620     3.947595110    -1.822972799
 H       -1.658390156     1.645858283    -1.909161449
 H       -2.611398124     6.054977522    -0.815996130
 H       -1.119146144     6.421120549     1.873041927
 H       -1.229945839     8.498537270     2.892192874
 H       -1.957821114    10.810388516     3.008835844
 H       -4.094199754    10.280263552    -0.748192430
 H       -3.329242403     7.973487418    -0.827737840
 H       -5.718422530    12.115461758     2.541692682
 H       -6.081259663    13.630493757    -0.165561886
 H       -8.194546766    14.276588760    -0.759781201
 H      -10.630773015    14.429103762    -0.356695658
 H      -10.119581372    12.384315768     3.405611495
 H       -7.717696536    12.157658989     2.963290825
 H      -13.682865525    12.664513156     2.466925064
 H      -12.348189353    12.686549344     3.655805479
 H      -12.293788826    11.574725679     2.253395854
 H      -10.439142069    17.998511974     1.482935276
 H       -9.716909971    16.369822349     1.290120058
 H       -8.719506439    17.758010563     1.837800718
 H      -10.323754655    16.233785718     5.846664712
 H       -8.878824283    14.674559947     7.070386056
 H       -6.281709001    14.386643597     3.644718784
 H       -7.721369830    15.906727330     2.408505820
 H       -7.017545494    13.295856626     7.231209763
 H       -5.161246819    13.156219689     4.725729048
 H       -6.023939501    10.869590653     4.313723029
 H       -6.024893619     8.850919855     2.976330967
 H       -2.908750143     7.171410046     5.424504554
 H       -2.845268460     9.198332505     6.773633795
 H       -3.749383112     5.870637055     3.637556489
 H       -5.994802180     7.180896386     1.954562435
 H       -3.753050128     4.136558848     2.514693913
 H       -3.852682566     2.149585302     1.123836334
 H       -7.009367259     4.004260741    -1.230772744
 H       -6.864258427     5.979517165     0.180599412
 H      -11.861698573    15.652056969     1.306822235
 H      -13.437321516    15.058268056     1.875680358
 H      -12.880110227    15.298045727     4.134120006
 H      -11.235648179    14.719459668     3.911378311
 H      -12.045628036    17.519294859     2.891161954
 H      -11.673218751    17.255725097     4.604782175
 H        2.270512829    -1.028015440     0.006989810
 H        2.274224865     0.523707849     0.883273144
 H        2.267669801     0.508416631    -0.896236134
 H       -4.649661293    -0.905804734    -1.144547836
 H       -5.044692291    -0.298682766     0.483054086
 H       -3.560164780     0.250118007    -0.335668584
 H       -7.822496541     0.720491346    -0.470117091
 H       -7.944894824     1.726971412    -1.932909466
 H       -7.460530343     0.018745154    -2.067448498
 H       -3.767017678     2.128459307    -2.829826345
 H       -4.878465122     0.972710518    -3.609657264
 H       -5.364868377     2.673610364    -3.395045429
 H       -2.288881015    12.666595915     5.710839988
 H       -2.696777768    13.461281340     7.252230535
 H       -2.005803772    11.818779157     7.250864906
 H       -6.063658839    10.978602214     8.346993730
 H       -4.395884109    10.687684323     8.892430548
 H       -5.086549923    12.327370219     8.986964500
 H       -2.894410822    12.957105602     3.557312957
 H       -1.654667346    13.456086030     2.378240817
 H       -3.095797565    14.470552942     2.641427075
 H       -3.788009721    12.832333904    -1.257754519
 H       -3.533553884    14.386324240    -0.419945849
 H       -2.173221070    13.260201779    -0.649014647
 H       -0.251540660    -0.445697347    -2.443022320
 H       -0.287205787    -1.960092144    -1.509290083
 H       -1.727294625    -0.913859112    -1.555796916
 H       -0.302077739    -0.346410362     2.453616289
 H       -1.755047358    -0.848288485     1.555311403
 H       -0.316617825    -1.900142456     1.582316147

