139   

Si        0.000000000     0.000000000     0.000000000
 C        1.872174303     0.000000000     0.000000000
 C       -0.592752457     1.747978910     0.000000000
 C       -0.065477872     2.640271162    -0.941455180
 C       -0.488028240     3.966710038    -0.972375127
 C       -1.453571926     4.434338700    -0.074551527
 C       -1.986167610     3.538551675     0.859729280
 C       -1.563866569     2.209768587     0.894869908
 C       -1.912354420     5.821518852    -0.088099869
 C       -1.450649510     6.743276345    -0.950164519
 C       -1.863809671     8.139061580    -1.017734715
 C       -1.265439107     8.952463895    -1.990948707
 C       -1.612479287    10.294515329    -2.111798685
 C       -2.556817922    10.862636583    -1.247864812
 C       -3.147426747    10.056680266    -0.268743038
 C       -2.802556815     8.709021084    -0.153418053
Si       -3.003353424    12.645098477    -1.424886622
 C       -4.797684915    12.823078047    -1.102518790
 C       -5.341847424    13.572021841    -0.134331190
 C       -6.782854215    13.693079241     0.097159831
 C       -7.235581281    14.509006573     1.144174000
 C       -8.588727588    14.655740082     1.402953610
 C       -9.538132899    13.922637446     0.661286896
 C       -9.086408094    13.095763448    -0.381061636
 C       -7.729900214    13.007786909    -0.668834631
 N      -10.910236870    14.098936772     0.954070680
 C      -11.285269564    14.013991741     2.380115449
 C      -11.860497261    13.386636228     0.082252302
 C      -11.057006420    12.631038343     3.019519101
 C       -9.805710989    12.617280012     3.920513946
 N       -9.248543415    11.269861208     4.163730092
 C       -8.660894734    10.700569037     2.992696361
 C       -7.464313393    11.283560220     2.538481169
 C       -6.836044236    10.785397201     1.408908437
 C       -7.352123756     9.673846722     0.726005633
 C       -8.529393498     9.088597310     1.196303645
 C       -9.183041016     9.591118842     2.317865024
 C      -10.180519280    10.390398490     4.890566941
 C       -6.647552733     9.187734139    -0.463905732
 C       -7.052771713     8.137745634    -1.187814641
Si       -6.240756048     7.459157252    -2.684533384
 C       -5.804092531     5.714447815    -2.265415862
 C       -5.767547853     5.313235508    -0.925169584
 C       -5.440464838     4.001634544    -0.587061247
 C       -5.129395420     3.066461991    -1.577648731
 C       -5.154183344     3.473361497    -2.917895938
 C       -5.482083518     4.783693363    -3.259511959
 C       -4.782111113     1.684493878    -1.263374561
 C       -4.725966884     1.181692505    -0.018197232
 C       -4.380148868    -0.197303873     0.306990099
 C       -4.067844534    -1.144951001    -0.672048184
 C       -3.742458142    -2.453502531    -0.318924263
 C       -3.730447368    -2.846420624     1.024739864
 C       -4.046086838    -1.900389823     2.006662062
 C       -4.366165318    -0.591763603     1.650882753
Si       -3.295248655    -4.586652256     1.458681630
 C       -1.658479081    -5.006480262     0.657758010
 C       -3.139988616    -4.785587626     3.310650848
 C       -4.635468231    -5.718718344     0.817317616
 C       -7.498190987     7.477365215    -4.069734260
 C       -4.737915948     8.416795779    -3.210894093
 C       -1.982547654    13.630823369    -0.211919244
 C       -2.679377473    13.238204408    -3.166757470
 C       -0.616282494    -0.849837563    -1.544866483
 C       -0.601252145    -0.901507525     1.518352263
 H        0.687296562     2.335857278    -1.673812037
 H       -0.058987924     4.639125315    -1.713362242
 H       -2.742491436     3.878537908     1.564100751
 H       -2.021917673     1.551372417     1.638331126
 H       -2.675975647     6.070666985     0.652256902
 H       -0.692699380     6.466951815    -1.691883434
 H       -0.524289720     8.529792876    -2.666697371
 H       -1.118343263    10.872820073    -2.897014407
 H       -3.884506264    10.451422982     0.438467336
 H       -3.278711703     8.099266133     0.613267090
 H       -5.429296207    12.247607424    -1.799617002
 H       -4.740084643    14.159893793     0.571232074
 H       -6.515203884    15.056277616     1.752643974
 H       -8.918589223    15.340148703     2.179981665
 H       -9.783750370    12.505455551    -0.967646089
 H       -7.407097992    12.366116813    -1.491281551
 H      -12.888361940    13.701825697     0.330497682
 H      -11.805258407    12.288850045     0.159851852
 H      -11.680769655    13.680388336    -0.967850327
 H      -10.420725552    10.859813497     5.860315801
 H       -9.676993635     9.431740848     5.107673355
 H      -11.122866188    10.181571298     4.362747684
 H       -7.042424711    12.132546198     3.073915288
 H       -5.921030169    11.265157597     1.053673365
 H       -8.954338845     8.225748730     0.682561359
 H      -10.102219689     9.121356848     2.653318330
 H       -5.749822576     9.770088943    -0.712739772
 H       -7.963748844     7.579477201    -0.912380344
 H       -5.991028367     6.003143775    -0.104184290
 H       -5.422984819     3.712605654     0.462024782
 H       -4.908091071     2.761438532    -3.703019098
 H       -5.479545192     5.046898766    -4.320127694
 H       -4.553734571     1.059293765    -2.130832440
 H       -4.945762528     1.813674450     0.847161903
 H       -4.081155534    -0.864903403    -1.724400573
 H       -3.502494015    -3.148279079    -1.128749586
 H       -4.054420673    -2.151298573     3.070579748
 H       -4.609641830     0.129335295     2.428857887
 H      -10.731826671    14.803949760     2.935313767
 H      -12.359499835    14.298245563     2.460839577
 H      -11.944835969    12.330443735     3.601959911
 H      -10.948468320    11.861793816     2.228443080
 H       -8.999081070    13.238785214     3.464858405
 H      -10.033912204    13.072669034     4.908648138
 H        2.271691244    -1.028514913     0.026381717
 H        2.269862791     0.535319494     0.880896241
 H        2.279791953     0.493450668    -0.898923274
 H       -1.316609423    -6.015696718     0.946566242
 H       -0.872475366    -4.288830019     0.956965860
 H       -1.726406582    -4.979902787    -0.443955467
 H       -2.378437944    -4.103254714     3.728738958
 H       -4.095990767    -4.577372267     3.822978797
 H       -2.842050750    -5.815544922     3.576911927
 H       -4.754866464    -5.626410966    -0.276863732
 H       -4.410929304    -6.776434256     1.040806796
 H       -5.613046192    -5.481773978     1.275258870
 H       -8.385840595     6.870671441    -3.817907670
 H       -7.845797964     8.504647867    -4.278996946
 H       -7.073550055     7.071920127    -5.004249524
 H       -3.975486752     8.455304578    -2.407298888
 H       -4.253342483     7.957900203    -4.090767504
 H       -4.990493859     9.459969472    -3.472543759
 H       -2.163795080    13.305720874     0.828690750
 H       -0.901918139    13.509881830    -0.408158462
 H       -2.211682642    14.709327060    -0.273037159
 H       -3.191418240    12.605321127    -3.913444096
 H       -3.043105997    14.272661919    -3.306835751
 H       -1.601825734    13.233830738    -3.405813011
 H       -0.290425197    -0.319095422    -2.456059224
 H       -0.246000056    -1.887607840    -1.606023736
 H       -1.721190046    -0.888035377    -1.558831922
 H       -0.281673533    -0.394975669     2.445403544
 H       -1.707225036    -0.962302515     1.532029444
 H       -0.217065847    -1.935738078     1.552088142

