139   

Si        0.000000000     0.000000000     0.000000000
 C        1.869047559     0.000000000     0.000000000
 C       -0.657651597     1.724829938     0.000000000
 C        0.178457337     2.827806160    -0.196303952
 C       -0.341388209     4.122430579    -0.192207341
 C       -1.706542159     4.343314308     0.006768744
 C       -2.543837130     3.236164741     0.201071723
 C       -2.028222526     1.943108072     0.196264444
 C       -2.295396350     5.678402448     0.019188917
 C       -1.608170437     6.819963966    -0.155150608
 C       -2.199175549     8.154178558    -0.142344603
 C       -1.366047619     9.262832276    -0.337399192
 C       -1.886076901    10.555695627    -0.333169770
 C       -3.252676850    10.770141452    -0.125397810
 C       -4.087418497     9.662905082     0.071962325
 C       -3.565597811     8.370952204     0.061474721
Si       -3.980156787    12.466156394    -0.112524648
 C       -5.210629456    12.620764495    -1.462095865
 C       -5.514530922    11.632391278    -2.314105448
 C       -6.492378298    11.733027266    -3.397831738
 C       -6.705561801    10.610406513    -4.212415036
 C       -7.617560354    10.643809687    -5.253709365
 C       -8.332254500    11.827827653    -5.533107756
 C       -8.120989815    12.953222550    -4.718447222
 C       -7.223301942    12.894265491    -3.658845433
 N       -9.251637774    11.819869324    -6.602128730
 C       -8.799193066    11.216739223    -7.874250404
 C      -10.081176622    13.021975950    -6.763457994
 C       -7.318381965    11.434667785    -8.241181461
 C       -7.079620972    12.294547964    -9.494246480
 N       -7.299322524    13.747662663    -9.345570860
 C       -6.826130169    14.344931559    -8.162969172
 C       -5.555276616    13.969998837    -7.672918689
 C       -5.058146346    14.537139616    -6.512392974
 C       -5.789912891    15.505029818    -5.807623382
 C       -7.029326196    15.900249015    -6.314665146
 C       -7.535454103    15.354469769    -7.488431747
 C       -8.598722485    14.201758086    -9.861665233
 C       -5.217071964    16.072224735    -4.585898070
 C       -5.825464285    16.999943443    -3.835290898
Si       -5.142339110    17.732440240    -2.303257531
 C       -4.982184433    19.553118479    -2.548184217
 C       -4.863002949    20.081152357    -3.838124398
 C       -4.741524503    21.456537516    -4.031421082
 C       -4.726502766    22.332336002    -2.942094079
 C       -4.840688135    21.800073069    -1.650955648
 C       -4.966665836    20.426960921    -1.454569363
 C       -4.601275966    23.778070218    -3.097328952
 C       -4.485035603    24.412400826    -4.276431558
 C       -4.359719559    25.857769913    -4.433818015
 C       -4.348678482    26.736935498    -3.348083076
 C       -4.226775136    28.112627962    -3.545522172
 C       -4.113277001    28.638825948    -4.835436657
 C       -4.123872289    27.759291365    -5.926816358
 C       -4.245348386    26.387109261    -5.726775865
Si       -3.950495022    30.453516540    -5.131801514
 C       -3.977173629    31.396459597    -3.518140335
 C       -2.330305312    30.773735891    -6.006861691
 C       -5.377540544    31.017323378    -6.199047283
 C       -6.303144378    17.329404802    -0.896977161
 C       -3.438785954    17.057076373    -1.942560989
 C       -4.840402957    12.749342621     1.522329507
 C       -2.651311722    13.758887558    -0.341076554
 C       -0.623862012    -0.870389611    -1.531496773
 C       -0.608303493    -0.884033350     1.530754468
 H        1.254707434     2.718605765    -0.355599825
 H        0.331582406     4.964164001    -0.346169811
 H       -3.610597643     3.386237849     0.357521241
 H       -2.730322814     1.119176117     0.352110662
 H       -3.376571844     5.699308578     0.185994339
 H       -0.527132351     6.799624537    -0.321314091
 H       -0.299411014     9.116679279    -0.496721449
 H       -1.187807423    11.380918420    -0.496761641
 H       -5.164080415     9.770041402     0.240090419
 H       -4.235008341     7.526496003     0.215853536
 H       -5.694547931    13.606779552    -1.529883013
 H       -5.034275850    10.642962927    -2.265827372
 H       -6.149869513     9.691636958    -4.020668090
 H       -7.787338413     9.756648911    -5.856918240
 H       -8.633599849    13.889500094    -4.919013939
 H       -7.074526149    13.783321466    -3.043127764
 H      -10.856644489    12.835294456    -7.524547515
 H       -9.510683324    13.922663079    -7.043915914
 H      -10.611095067    13.223756305    -5.813379481
 H       -8.754771159    13.786062312   -10.872499088
 H       -8.584925910    15.301399293    -9.975094631
 H       -9.455764461    13.918181689    -9.231784039
 H       -4.961196207    13.236864804    -8.211915371
 H       -4.081610538    14.222038815    -6.140962048
 H       -7.613109707    16.661411834    -5.793751659
 H       -8.488938836    15.710922983    -7.863441316
 H       -4.231228628    15.656120642    -4.337498394
 H       -6.817715231    17.393178187    -4.108091726
 H       -4.866439136    19.443503491    -4.728944050
 H       -4.655858325    21.843826692    -5.045319107
 H       -4.831505794    22.464940882    -0.789352381
 H       -5.055050407    20.069534238    -0.425269500
 H       -4.607415850    24.341309070    -2.159546481
 H       -4.478507347    23.848393162    -5.214015862
 H       -4.435726777    26.352912926    -2.333221235
 H       -4.224415473    28.749810528    -2.656934653
 H       -4.038355381    28.113525498    -6.958017342
 H       -4.251368224    25.719440985    -6.586492787
 H       -8.995769054    10.120535310    -7.778480651
 H       -9.454611607    11.569260511    -8.698672714
 H       -6.769839262    11.872454257    -7.378936334
 H       -6.834911915    10.449836839    -8.395770756
 H       -6.016505525    12.169510298    -9.819681618
 H       -7.698356800    11.917599315   -10.337429082
 H        2.266912577    -1.030122873     0.033303999
 H        2.272102386     0.538259215     0.876677753
 H        2.276608509     0.480953251    -0.906798269
 H       -3.872000444    32.482668265    -3.690346000
 H       -3.150851769    31.086708388    -2.853771688
 H       -4.924890007    31.239451645    -2.972887908
 H       -1.473146964    30.434912694    -5.396842552
 H       -2.278334709    30.240413747    -6.972464301
 H       -2.189107930    31.849532433    -6.211456097
 H       -6.346833183    30.826672430    -5.703440354
 H       -5.318697947    32.099432649    -6.410591933
 H       -5.393427899    30.488050248    -7.168115282
 H       -7.306656925    17.759673458    -1.065915325
 H       -6.425814205    16.236280683    -0.782962763
 H       -5.929931158    17.723221614     0.064124595
 H       -2.710060643    17.389324750    -2.704663869
 H       -3.066708566    17.401604933    -0.962100839
 H       -3.437060530    15.951595666    -1.939291625
 H       -5.659237025    12.024231273     1.678663278
 H       -4.136615503    12.640630501     2.366971446
 H       -5.277894440    13.761464524     1.578889889
 H       -2.201611500    13.704363960    -1.348773550
 H       -3.058816508    14.777994358    -0.208356064
 H       -1.839651659    13.633689455     0.397521082
 H       -0.277706776    -0.362629017    -2.450010977
 H       -0.268975616    -1.915075248    -1.573950178
 H       -1.727766847    -0.890530081    -1.563205363
 H       -0.279253647    -0.363895125     2.448878298
 H       -1.710681527    -0.938633438     1.559415878
 H       -0.222574174    -1.917688649     1.577348345

