139   

Si        0.000000000     0.000000000     0.000000000
 C        1.868951122     0.000000000     0.000000000
 C       -0.659664893     1.724187728     0.000000000
 C        0.180325858     2.832801972     0.138887697
 C       -0.343905939     4.125756962     0.135640655
 C       -1.717180763     4.339114480    -0.007281302
 C       -2.558268034     3.226366800    -0.145505326
 C       -2.038247753     1.935148592    -0.140728560
 C       -2.311566807     5.671722922    -0.016611728
 C       -1.623303208     6.819232141     0.108148602
 C       -2.222700892     8.149819423     0.098178014
 C       -1.389880716     9.267092289     0.237653495
 C       -1.918618862    10.556477201     0.233756602
 C       -3.295881980    10.757206823     0.094635724
 C       -4.131123363     9.641641301    -0.045548764
 C       -3.598625532     8.354018628    -0.046343608
Si       -4.038360217    12.445743026     0.084177806
 C       -4.716476367    12.796866824    -1.582327896
 C       -4.666630405    11.942488481    -2.612518215
 C       -5.207810721    12.221537376    -3.944125344
 C       -5.089213933    11.236437695    -4.937689825
 C       -5.583530335    11.448494767    -6.213566104
 C       -6.254290005    12.649382644    -6.522649104
 C       -6.373820439    13.636184955    -5.533667478
 C       -5.835511010    13.425620647    -4.268048920
 N       -6.738410758    12.808174130    -7.848358195
 C       -7.740237119    11.794187102    -8.248791500
 C       -7.142629697    14.174501767    -8.223544318
 C       -8.990866710    11.744487604    -7.352542574
 C       -8.898556814    10.624995665    -6.295107980
 N       -9.668548040    10.903894771    -5.069185546
 C      -11.038500084    11.177670670    -5.235826544
 C      -11.775283736    10.459741760    -6.203345071
 C      -13.124547638    10.711246887    -6.385872715
 C      -13.803387268    11.644794605    -5.588171301
 C      -13.079143895    12.331677178    -4.610664351
 C      -11.721204573    12.103500724    -4.425178110
 C       -8.930514147    11.739116926    -4.107815079
 C      -15.229522894    11.869931022    -5.825957524
 C      -15.986276928    12.731928133    -5.133672097
Si      -17.771395069    13.021781223    -5.422444352
 C      -18.369283922    11.953856101    -6.803299777
 C      -18.889106649    12.494634578    -7.982292702
 C      -19.333567118    11.661442958    -9.009374311
 C      -19.264589098    10.271869177    -8.882306674
 C      -18.740728767     9.731083915    -7.699816591
 C      -18.298108937    10.559579857    -6.672789452
 C      -19.717055744     9.361717114    -9.929208042
 C      -20.237424799     9.747146730   -11.106634354
 C      -20.689481890     8.835550304   -12.152630211
 C      -20.621184863     7.445922519   -12.022952720
 C      -21.064926839     6.611267604   -13.048591585
 C      -21.595079253     7.149334081   -14.225241706
 C      -21.665659296     8.542560579   -14.357674188
 C      -21.215528676     9.373372627   -13.335033845
Si      -22.188083933     6.062726616   -15.594963637
 C      -22.431223920     4.312248553   -14.985655336
 C      -23.818757970     6.711479785   -16.239340135
 C      -20.910185246     6.081997959   -16.958161674
 C      -18.718856450    12.589996063    -3.870582484
 C      -18.017616951    14.830403260    -5.823603238
 C       -5.423167482    12.520110669     1.335725084
 C       -2.757255204    13.743457288     0.488206833
 C       -0.610270918    -0.881731011    -1.531181798
 C       -0.621716582    -0.872013664     1.531452347
 H        1.262917715     2.729188773     0.252598193
 H        0.332062619     4.971919737     0.246250646
 H       -3.631480270     3.370644854    -0.257141857
 H       -2.743779855     1.106627948    -0.250487000
 H       -3.399262003     5.685418828    -0.136087271
 H       -0.536126524     6.807217494     0.228455408
 H       -0.315814034     9.130541459     0.349664760
 H       -1.219388974    11.389978477     0.343664851
 H       -5.215737592     9.737759371    -0.158776648
 H       -4.268028364     7.502837536    -0.158255850
 H       -5.179132006    13.790365958    -1.682180979
 H       -4.204798188    10.946680144    -2.535214170
 H       -4.586995236    10.295584263    -4.706914185
 H       -5.444868171    10.695826495    -6.986972325
 H       -6.883493740    14.572103456    -5.741967977
 H       -5.921776980    14.213881627    -3.519181692
 H       -7.294297932    14.209509700    -9.316981438
 H       -6.322723596    14.876974579    -7.991913106
 H       -8.063847118    14.527576015    -7.734322616
 H       -7.881146219    11.394633634    -4.039786801
 H       -9.371284746    11.617206963    -3.102733341
 H       -8.913712564    12.808774632    -4.371446995
 H      -11.284875729     9.705407267    -6.811979445
 H      -13.670238299    10.162537094    -7.154756326
 H      -13.582389993    13.062583468    -3.976398115
 H      -11.196440035    12.661664619    -3.656410231
 H      -15.631276457    11.256672289    -6.646332721
 H      -15.560825996    13.339011686    -4.319987258
 H      -18.965044905    13.573716860    -8.141448110
 H      -19.735397559    12.107641191    -9.917192299
 H      -18.678027628     8.650925856    -7.581042164
 H      -17.898938118    10.080396228    -5.772948511
 H      -19.604792089     8.299612127    -9.691569498
 H      -20.350709545    10.808898328   -11.344868948
 H      -20.217502912     7.001094330   -11.115036520
 H      -20.983772141     5.532469070   -12.889182686
 H      -22.070001862     9.020026265   -15.254609085
 H      -21.276614906    10.453282342   -13.457205101
 H       -8.032858595    12.005242292    -9.302118224
 H       -7.232176393    10.804250817    -8.274214126
 H       -9.140259796    12.721025415    -6.852626410
 H       -9.899074313    11.601264146    -7.967207191
 H       -9.256429176     9.660260872    -6.720115914
 H       -7.837607067    10.447074965    -6.003085439
 H        2.266603255    -1.030755088    -0.010921523
 H        2.276257365     0.500234014     0.896545569
 H        2.272729163     0.518898087    -0.887811169
 H      -22.852165919     3.669187575   -15.779139370
 H      -23.127819696     4.278555562   -14.128602781
 H      -21.479081421     3.855587962   -14.662901316
 H      -24.572140333     6.767291684   -15.432517781
 H      -23.716208721     7.724137378   -16.666920956
 H      -24.225700306     6.057235915   -17.030427194
 H      -19.935916511     5.703469606   -16.599394920
 H      -21.220100666     5.451342672   -17.809799531
 H      -20.744875110     7.104590715   -17.341774588
 H      -18.567614562    11.532688500    -3.587316988
 H      -18.399489895    13.211611300    -3.015786306
 H      -19.803949175    12.744044687    -4.010079641
 H      -17.449022533    15.122630845    -6.725172188
 H      -19.081801167    15.062743010    -6.004903160
 H      -17.674083016    15.475132985    -4.995087340
 H       -6.228752601    11.804141640     1.092388592
 H       -5.056711008    12.273983196     2.349037296
 H       -5.875276941    13.526464992     1.379998283
 H       -1.953752571    13.767336821    -0.270474542
 H       -3.204824123    14.752839042     0.523431525
 H       -2.289058708    13.554448649     1.470727959
 H       -0.272153112    -0.367397616    -2.449183923
 H       -0.234557952    -1.919285877    -1.573651020
 H       -1.713050211    -0.925375487    -1.564064990
 H       -0.270665421    -0.366809531     2.449648558
 H       -1.725522718    -0.889393389     1.567233351
 H       -0.269587836    -1.917802784     1.570416978

