139   

Si        0.000000000     0.000000000     0.000000000
 C        1.869374986     0.000000000     0.000000000
 C       -0.633342877     1.734302545     0.000000000
 C        0.064198861     2.745533115     0.670055805
 C       -0.412474370     4.055894243     0.671219143
 C       -1.600421346     4.384562649     0.012118261
 C       -2.300260073     3.369982370    -0.653721582
 C       -1.824270499     2.061032992    -0.660075144
 C       -2.137851391     5.741102849    -0.013807732
 C       -1.565338826     6.802693809     0.578824388
 C       -2.103800637     8.158854956     0.552176165
 C       -3.292347749     8.484396444    -0.107999929
 C       -3.771677729     9.793657857    -0.108724177
 C       -3.065231576    10.808311812     0.545735779
 C       -1.873917933    10.486694730     1.207377126
 C       -1.402093615     9.176239042     1.212162350
Si       -3.697202775    12.540951033     0.546211698
 C       -2.292385712    13.668359959     0.885599568
 C       -2.205600356    14.511373534     1.922512481
 C       -1.065561158    15.399705188     2.163009278
 C       -1.089335039    16.240602118     3.286989930
 C       -0.036484901    17.098438847     3.558282526
 C        1.066531710    17.163997953     2.683062139
 C        1.096673386    16.322846461     1.561690046
 C        0.049257456    15.438899655     1.323004023
 N        2.114538511    18.063317921     3.016327759
 C        1.701779291    19.484876419     3.045380580
 C        3.383392206    17.861619662     2.294688644
 C        1.122667500    20.010262699     1.719568379
 C       -0.419377840    19.972955205     1.707929741
 N       -0.998236706    19.841976568     0.357725582
 C       -0.589130526    20.801042643    -0.589516508
 C       -0.476979966    22.151744012    -0.193346992
 C       -0.077270868    23.117235693    -1.101675122
 C        0.180905966    22.789979650    -2.441578516
 C        0.040265093    21.457998117    -2.837697354
 C       -0.345164225    20.473867689    -1.935388212
 C       -1.074431884    18.444519522    -0.097812747
 C        0.600610682    23.851120768    -3.357839347
 C        0.875609663    23.665664497    -4.655835593
Si        1.401607474    24.985679133    -5.811962123
 C        1.494691022    26.600069756    -4.922812063
 C        0.335468892    27.130128558    -4.342008212
 C        0.375376339    28.347106829    -3.664391790
 C        1.572273237    29.060983605    -3.547822173
 C        2.730148880    28.528006404    -4.127712977
 C        2.693294011    27.311943511    -4.807263254
 C        1.660125622    30.338352772    -2.847583322
 C        0.625967989    30.954701665    -2.250407162
 C        0.711360331    32.231897662    -1.549673575
 C        1.904752232    32.949648508    -1.431765350
 C        1.940185195    34.167165912    -0.752702100
 C        0.778400622    34.699103509    -0.183079652
 C       -0.418991995    33.982188764    -0.300778759
 C       -0.449935321    32.762825524    -0.972770144
Si        0.821557639    36.310912066     0.716766794
 C        2.185858601    37.391182930     0.033475598
 C       -0.811245223    37.198504520     0.513794807
 C        1.134457619    35.965338791     2.526204973
 C        3.065390035    24.517711183    -6.522417284
 C        0.148646367    25.124698237    -7.191003029
 C       -4.388448083    12.978520218    -1.133235685
 C       -5.031096558    12.688659148     1.843334424
 C       -0.603819012    -0.906996576    -1.519152538
 C       -0.631967441    -0.854288661     1.537041458
 H        0.997622345     2.549904145     1.205228527
 H        0.151963397     4.825208715     1.195456539
 H       -3.227495350     3.603727721    -1.173757084
 H       -2.412442389     1.313115705    -1.198885135
 H       -3.075243830     5.850395711    -0.567294960
 H       -0.628182678     6.693341785     1.132726136
 H       -3.856609413     7.712660429    -0.628360094
 H       -4.707852027     9.986916375    -0.639550794
 H       -1.282051314    11.241097969     1.736456676
 H       -0.475550531     8.943708858     1.734325339
 H       -1.485694640    13.601351388     0.137034168
 H       -2.992877274    14.601792314     2.682408349
 H       -1.943247905    16.211399339     3.964500766
 H       -0.048714040    17.716227126     4.453907304
 H        1.933570474    16.350710519     0.869901937
 H        0.101914132    14.779725947     0.454904547
 H        4.171140727    18.448110217     2.800432704
 H        3.356952810    18.157874658     1.234444899
 H        3.681658764    16.800718124     2.361894410
 H       -1.484093318    17.811885911     0.711959753
 H       -0.102154640    18.019681135    -0.394583427
 H       -1.779115274    18.372499193    -0.944911678
 H       -0.703912185    22.438254247     0.829755526
 H        0.024766429    24.151777532    -0.770889027
 H        0.234994263    21.176464722    -3.873291173
 H       -0.436756488    19.450163919    -2.284096527
 H        0.675204163    24.835220103    -2.871477142
 H        0.798109756    22.670587475    -5.119711542
 H       -0.630132367    26.617322029    -4.400273477
 H       -0.539294377    28.739430258    -3.223340608
 H        3.672185938    29.067297877    -4.048735470
 H        3.628691265    26.945438234    -5.238510512
 H        2.658090472    30.786242532    -2.835520803
 H       -0.372146045    30.506715077    -2.263150510
 H        2.821573075    32.560564360    -1.871127415
 H        2.903675001    34.680936303    -0.692325470
 H       -1.358152886    34.348393846     0.123125627
 H       -1.390014637    32.219794365    -1.051793735
 H        0.968056259    19.609578640     3.873042284
 H        2.590129063    20.087987154     3.340402324
 H        1.470879085    21.043229451     1.531543947
 H        1.518485997    19.420182337     0.870498079
 H       -0.796741359    19.128468394     2.329587611
 H       -0.831868679    20.895794947     2.174624334
 H        2.268495105    -1.027582090    -0.069289680
 H        2.279679695     0.452197320     0.919809353
 H        2.268953289     0.569923975    -0.858501651
 H        2.173612400    38.392413287     0.499911320
 H        2.076032987    37.532087402    -1.057133230
 H        3.183760539    36.955273745     0.215190593
 H       -1.055750950    37.345367680    -0.553959696
 H       -1.643647285    36.636501222     0.972022391
 H       -0.785447643    38.195496559     0.988594867
 H        2.095048412    35.440002567     2.674879199
 H        1.169516417    36.899010039     3.114579024
 H        0.341362702    35.328003652     2.956851445
 H        3.824259011    24.402727179    -5.727192977
 H        3.012836638    23.557857378    -7.066668334
 H        3.431184342    25.280878782    -7.231722858
 H       -0.856655694    25.364961452    -6.800161935
 H        0.426353461    25.922376584    -7.903334483
 H        0.067226576    24.181737366    -7.759570465
 H       -3.638054922    12.827261642    -1.930231611
 H       -5.268773508    12.361212619    -1.383962480
 H       -4.703547418    14.037313584    -1.171038226
 H       -4.644707387    12.438416370     2.848429650
 H       -5.443038983    13.712597650     1.885572014
 H       -5.870201156    12.000409703     1.635185980
 H       -0.306633316    -0.380563716    -2.444226971
 H       -0.182198541    -1.926845008    -1.568584104
 H       -1.703455499    -1.004787373    -1.528369277
 H       -0.286309142    -0.342088954     2.453004214
 H       -1.736474099    -0.866970412     1.564816735
 H       -0.284315077    -1.901048473     1.587804854

