139   

Si        0.000000000     0.000000000     0.000000000
 C        1.869185004     0.000000000     0.000000000
 C       -0.638751121     1.732118554     0.000000000
 C        0.029457824     2.735084979    -0.711174445
 C       -0.450704888     4.044171111    -0.712946977
 C       -1.612390985     4.379741089    -0.011774705
 C       -2.283016726     3.373294542     0.695277896
 C       -1.804217066     2.065423302     0.700850698
 C       -2.153134210     5.734666880     0.015957382
 C       -1.610647458     6.790693977    -0.613618117
 C       -2.157153011     8.143549413    -0.581477484
 C       -3.320542471     8.468077914     0.123596371
 C       -3.809219285     9.772539418     0.128727717
 C       -3.146216461    10.783740106    -0.579051630
 C       -1.983748043    10.462178254    -1.286412047
 C       -1.495088560     9.156802277    -1.285633224
Si       -3.828642254    12.496532442    -0.544453485
 C       -3.821100703    13.129633264     1.174964560
 C       -3.380915922    12.434025287     2.231942262
 C       -3.371856533    12.933028835     3.607634767
 C       -2.881753329    12.097023492     4.622229499
 C       -2.850211000    12.518510681     5.941161862
 C       -3.375747798    13.777760343     6.296667644
 C       -3.873467754    14.613680620     5.284433298
 C       -3.845074487    14.199844509     3.957429568
 N       -3.321823375    14.166739860     7.657413289
 C       -3.870964917    13.191564962     8.621981833
 C       -3.742445316    15.547058838     7.954425937
 C       -5.383720811    12.934430436     8.484922693
 C       -5.679326749    11.617049935     7.740098961
 N       -7.019159568    11.549793821     7.117213724
 C       -7.113827996    12.401958125     5.968263215
 C       -6.573021054    11.896620712     4.774353675
 C       -6.623927090    12.658157361     3.617226084
 C       -7.221188335    13.928196710     3.617318221
 C       -7.768283887    14.415167858     4.806466167
 C       -7.725637901    13.659980484     5.974620058
 C       -8.116323832    11.707914826     8.088115385
 C       -7.248274325    14.692095018     2.366286841
 C       -7.790374209    15.910923099     2.249315788
Si       -7.857265035    16.916640205     0.719892358
 C       -9.629224084    17.239175679     0.324110219
 C      -10.626042058    16.381319424     0.804920617
 C      -11.965317658    16.621122295     0.508472325
 C      -12.340126495    17.715744276    -0.281729793
 C      -11.341631215    18.566832233    -0.764338756
 C       -9.999807984    18.331979293    -0.465925056
 C      -13.756664813    17.923848497    -0.563939786
 C      -14.251296074    18.932241718    -1.301633245
 C      -15.668806034    19.137180169    -1.581776923
 C      -16.663791422    18.284023194    -1.097407664
 C      -18.007547940    18.517247959    -1.389579818
 C      -18.386625736    19.614531989    -2.169034306
 C      -17.390901232    20.471762479    -2.656144473
 C      -16.049775584    20.233046941    -2.367882696
Si      -20.160089214    19.939728602    -2.566389483
 C      -21.275305784    18.998103499    -1.398425371
 C      -20.510085083    21.768350345    -2.396350323
 C      -20.481195705    19.389879045    -4.322978005
 C       -6.958244256    18.520964297     1.050545414
 C       -7.068154541    16.037627036    -0.724838305
 C       -2.824361401    13.654686341    -1.610313052
 C       -5.593894591    12.446517377    -1.156833066
 C       -0.630219040    -0.853721194    -1.538326623
 C       -0.602785231    -0.911310500     1.517180388
 H        0.941848101     2.533576689    -1.279386437
 H        0.089679841     4.806931610    -1.270881917
 H       -3.190095991     3.612618043     1.247463739
 H       -2.369947831     1.323840813     1.271642676
 H       -3.068364343     5.848402841     0.604948816
 H       -0.696363388     6.679346726    -1.203657659
 H       -3.855061578     7.698354365     0.677618667
 H       -4.723188989     9.965696537     0.700332901
 H       -1.424773578    11.210803904    -1.854376916
 H       -0.587740464     8.925901143    -1.840843084
 H       -4.208278228    14.154490316     1.283798074
 H       -2.980661108    11.412591082     2.144161662
 H       -2.500743481    11.106782356     4.368907735
 H       -2.415615533    11.877940943     6.704199685
 H       -4.296386885    15.585329521     5.520028452
 H       -4.229309867    14.871682598     3.187597354
 H       -3.532176123    15.769251853     9.014573711
 H       -4.808716269    15.745958402     7.762488564
 H       -3.135121816    16.247587889     7.352939916
 H       -8.060172529    10.877220265     8.812904912
 H       -9.081113288    11.617966599     7.558682174
 H       -8.110752948    12.656084171     8.645111910
 H       -6.112390114    10.909594117     4.770820987
 H       -6.186017885    12.263829875     2.697898692
 H       -8.238764128    15.398459858     4.830057543
 H       -8.159647252    14.057647768     6.886884013
 H       -6.779714849    14.163561316     1.524853322
 H       -8.252090011    16.412207421     3.116478644
 H      -10.391802345    15.508411071     1.423898891
 H      -12.727452615    15.946751734     0.895242192
 H      -11.606067939    19.424109160    -1.380643085
 H       -9.264080942    19.032834571    -0.869538421
 H      -14.424502991    17.178508201    -0.121386414
 H      -13.584677565    19.677769194    -1.744980414
 H      -16.396220210    17.424450888    -0.485230016
 H      -18.739452209    17.813529715    -0.983496992
 H      -17.627307983    21.344695874    -3.270937462
 H      -15.290520596    20.908815666    -2.757449424
 H       -3.298774004    12.242108615     8.523997128
 H       -3.641144483    13.569459089     9.644576744
 H       -5.855451070    12.916065620     9.482654936
 H       -5.860250710    13.777507976     7.945990984
 H       -4.926413832    11.454918796     6.932480184
 H       -5.591014511    10.752511339     8.433593879
 H        2.267238144    -1.028377489     0.064149261
 H        2.269851075     0.565615744     0.860822394
 H        2.279461083     0.456607383    -0.917631994
 H      -22.337650561    19.241837615    -1.578365788
 H      -21.053121031    19.245333318    -0.344631906
 H      -21.163695408    17.906040529    -1.517845715
 H      -20.256917685    22.130494091    -1.383257381
 H      -19.925598496    22.365896693    -3.117522902
 H      -21.577881779    21.989512174    -2.571218198
 H      -20.278447264    18.310876299    -4.449013832
 H      -21.530815497    19.568622640    -4.615415030
 H      -19.837390258    19.931040835    -5.039229361
 H       -7.458820368    19.106777975     1.842452955
 H       -5.919508911    18.337719707     1.380869513
 H       -6.913096124    19.154834857     0.148070367
 H       -7.576853570    15.078980425    -0.936192057
 H       -7.126848790    16.647102278    -1.644532136
 H       -6.000581078    15.826583976    -0.533360533
 H       -1.782531391    13.732424698    -1.249231860
 H       -2.791301107    13.311607146    -2.659466333
 H       -3.248232822    14.674763350    -1.609120640
 H       -6.228638739    11.807037225    -0.517349465
 H       -6.046445807    13.454065679    -1.176404624
 H       -5.644373212    12.039247476    -2.182758580
 H       -0.287581945    -0.338568661    -2.453673116
 H       -0.278924783    -1.899134249    -1.591308239
 H       -1.734742637    -0.870336745    -1.564758748
 H       -0.314563491    -0.381834133     2.443288707
 H       -1.701557166    -1.019043411     1.521050260
 H       -0.172423443    -1.927396483     1.568983797

