139   

Si        0.000000000     0.000000000     0.000000000
 C        1.869449979     0.000000000     0.000000000
 C       -0.640495924     1.731663877     0.000000000
 C        0.124419316     2.782314483    -0.517161861
 C       -0.367145587     4.087493228    -0.513210093
 C       -1.634828742     4.371844300     0.001657751
 C       -2.401792689     3.317478950     0.514887239
 C       -1.913287600     2.013544293     0.512939105
 C       -2.191184648     5.720594426     0.027168579
 C       -1.563422010     6.817183100    -0.430450797
 C       -2.122754322     8.164818344    -0.403439176
 C       -3.391671190     8.443311826     0.112934383
 C       -3.888006369     9.745932131     0.119417839
 C       -3.130753569    10.799027387    -0.406461200
 C       -1.860899063    10.522493642    -0.926658342
 C       -1.362263870     9.221751973    -0.919831543
Si       -3.800300257    12.519255998    -0.391439209
 C       -3.495944418    13.270584356     1.250111285
 C       -2.881055636    12.647040610     2.264345899
 C       -2.636906709    13.245682605     3.576803736
 C       -1.980849885    12.484303686     4.555643557
 C       -1.724399207    13.001348892     5.814082590
 C       -2.165142760    14.299511243     6.157388587
 C       -2.825511083    15.064001939     5.175536939
 C       -3.033184944    14.544984546     3.904255710
 N       -1.896800655    14.806350796     7.435008598
 C       -1.893242112    13.863538914     8.564549572
 C       -2.403052159    16.145721705     7.759312739
 C       -3.155809916    12.992539214     8.701825473
 C       -4.358831981    13.710647363     9.338594860
 N       -4.226992486    14.066773675    10.765625489
 C       -3.570663522    15.296197742    11.023562919
 C       -4.168778133    16.468114649    10.516990346
 C       -3.577561334    17.701749111    10.734393463
 C       -2.397981298    17.815179106    11.486451558
 C       -1.826445709    16.653562283    12.011324213
 C       -2.406448514    15.407616487    11.798534029
 C       -3.839964412    12.934807999    11.621378919
 C       -1.814038721    19.144062905    11.686209170
 C       -0.694128578    19.373721662    12.383688929
Si        0.071363675    21.016325452    12.659032094
 C        0.129755113    21.330036550    14.475791646
 C       -0.744123631    20.658968101    15.339703709
 C       -0.699356557    20.896439403    16.711353088
 C        0.212297652    21.813194270    17.251102101
 C        1.079917376    22.484496955    16.384492105
 C        1.039869258    22.247518099    15.011126407
 C        0.221193894    22.027912300    18.694601181
 C        1.044283325    22.874284673    19.336659944
 C        1.053855232    23.089601492    20.780015309
 C        0.187583435    22.419790423    21.648414434
 C        0.231552051    22.656646573    23.021952297
 C        1.151176922    23.563652042    23.559467674
 C        2.020942808    24.235364814    22.691191848
 C        1.969364507    24.003064732    21.319073724
Si        1.211690111    23.879283280    25.377748847
 C        0.658508747    22.357200949    26.311787512
 C        2.957382869    24.304686491    25.894340687
 C        0.070695509    25.307645617    25.763947511
 C        1.800494024    20.969433156    11.954022612
 C       -0.911283370    22.381616829    11.849925244
 C       -2.957956115    13.559824910    -1.695649921
 C       -5.640021639    12.489037342    -0.720072789
 C       -0.631072832    -0.859108306    -1.534545152
 C       -0.603775457    -0.898572168     1.524351091
 H        1.122858006     2.622639979    -0.933617946
 H        0.249676529     4.887682047    -0.918618428
 H       -3.392343557     3.516629894     0.919899775
 H       -2.557748113     1.232984091     0.926681682
 H       -3.193938206     5.792602688     0.458979653
 H       -0.561237486     6.745894547    -0.863176890
 H       -4.004068875     7.640296615     0.518854354
 H       -4.883998900     9.902417983     0.544207876
 H       -1.224069138    11.305333751    -1.348455661
 H       -0.371010276     9.027238160    -1.324951538
 H       -3.862907832    14.302784448     1.350027438
 H       -2.505640162    11.615867100     2.184591135
 H       -1.653215547    11.470787687     4.318747845
 H       -1.178074415    12.402269369     6.536397221
 H       -3.177372623    16.066098493     5.396274797
 H       -3.532258030    15.163267728     3.156888926
 H       -2.063603206    16.444392380     8.768821130
 H       -3.502001568    16.222030943     7.734018503
 H       -1.974118253    16.878783359     7.051470684
 H       -4.522842980    12.089448535    11.426026068
 H       -3.973599328    13.221783229    12.680073375
 H       -2.804942373    12.586924243    11.478935328
 H       -5.103883886    16.397360921     9.964850018
 H       -4.047702420    18.598393087    10.329325499
 H       -0.911462493    16.715848053    12.602899327
 H       -1.937927377    14.525059718    12.224014108
 H       -2.389580123    19.946263225    11.205957852
 H       -0.137181759    18.546400731    12.853890601
 H       -1.478550938    19.933727612    14.973844680
 H       -1.383804186    20.362983915    17.368625387
 H        1.797791074    23.201760557    16.778296851
 H        1.743870672    22.801080335    14.383802797
 H       -0.512234048    21.435334458    19.249492469
 H        1.777432043    23.467025884    18.781504915
 H       -0.533492053    21.704609972    21.256527309
 H       -0.473300397    22.104361011    23.649669968
 H        2.760689556    24.954671491    23.053481131
 H        2.651971182    24.537010164    20.660400378
 H       -1.000008879    13.204009694     8.443084006
 H       -1.713622862    14.432686354     9.505409405
 H       -3.460582782    12.619536018     7.700840989
 H       -2.906563745    12.084622354     9.282200070
 H       -4.597511606    14.627371839     8.754790742
 H       -5.258677962    13.053775113     9.260192409
 H        2.267884531    -1.027629630     0.074096718
 H        2.270033303     0.573413474     0.855521228
 H        2.279179638     0.446207417    -0.923074629
 H        0.759576917    22.499765872    27.402486015
 H        1.264698030    21.475658525    26.034915614
 H       -0.398647080    22.112804477    26.108060753
 H        3.665334551    23.507512436    25.603379741
 H        3.304723591    25.244700688    25.431220024
 H        3.030540776    24.429769214    26.989368729
 H       -0.970759182    25.080381928    25.473197675
 H        0.072624652    25.544614011    26.842371650
 H        0.371521746    26.221136051    25.220051389
 H        2.426214150    20.219023960    12.470610759
 H        1.786190350    20.706097826    10.880638973
 H        2.305776717    21.946455480    12.049376519
 H       -1.942471677    22.424581362    12.245916333
 H       -0.450074546    23.369278518    12.031657613
 H       -0.975423318    22.240199061    10.756498668
 H       -1.882597005    13.690852191    -1.478358635
 H       -3.045867797    13.097434262    -2.694904811
 H       -3.405621069    14.567809367    -1.754666926
 H       -6.187890052    11.959321610     0.079423300
 H       -6.054200627    13.510863378    -0.781569897
 H       -5.865645053    11.979447925    -1.674029327
 H       -0.285162402    -0.349079389    -2.451737882
 H       -0.282646507    -1.905730418    -1.582503567
 H       -1.735463961    -0.872421479    -1.562949824
 H       -0.304248768    -0.366911664     2.445788373
 H       -1.703614979    -0.992443420     1.536713233
 H       -0.184659407    -1.919039992     1.578827834

