139   

Si        0.000000000     0.000000000     0.000000000
 C        1.869529942     0.000000000     0.000000000
 C       -0.616106572     1.740696188     0.000000000
 C        0.030548806     2.714579820     0.769827381
 C       -0.426065498     4.031655547     0.777247178
 C       -1.542894398     4.405124402     0.023857344
 C       -2.191554260     3.428270635    -0.742132544
 C       -1.735226660     2.112058102    -0.754425932
 C       -2.055396925     5.771367297     0.001832893
 C       -1.523165286     6.797664351     0.687115115
 C       -2.033804249     8.164408191     0.666652322
 C       -1.378410004     9.138638351     1.432069694
 C       -1.828357704    10.456177375     1.444716100
 C       -2.945217421    10.830553845     0.687453223
 C       -3.600456553     9.861133581    -0.078313021
 C       -3.148148264     8.542038849    -0.087295505
Si       -3.540044300    12.575754178     0.705104476
 C       -5.267924979    12.584068721     0.091331554
 C       -5.694868799    13.248842317    -0.989694740
 C       -7.080862738    13.244754410    -1.466938054
 C       -7.394317068    13.986168778    -2.615894458
 C       -8.689067017    14.017438313    -3.110925802
 C       -9.699668230    13.279675620    -2.472947018
 C       -9.390909973    12.515103729    -1.343008841
 C       -8.086766701    12.489488336    -0.857907078
 N      -11.008000051    13.371340314    -3.053902508
 C      -11.723483333    14.592973601    -2.618512354
 C      -11.818850191    12.148491787    -2.913054733
 C      -12.201527708    14.574453158    -1.153723334
 C      -11.971591496    15.903998912    -0.411705030
 N      -10.610892073    16.117470929     0.119080457
 C      -10.065724348    15.105991151     0.930061528
 C      -10.907265085    14.261804493     1.686122527
 C      -10.368301789    13.265506215     2.484810573
 C       -8.982172624    13.106498178     2.612469131
 C       -8.148822693    13.973593797     1.899527907
 C       -8.671884707    14.967797282     1.085036146
 C       -9.694490024    16.739853320    -0.852529315
 C       -8.469533851    12.037392860     3.469513798
 C       -7.168694849    11.788284037     3.669382679
Si       -6.508345912    10.454936035     4.738259652
 C       -7.898044809     9.508827440     5.496436604
 C       -8.808926926    10.172480794     6.330406332
 C       -9.865719594     9.479948458     6.914030463
 C      -10.042038134     8.109471375     6.678223861
 C       -9.133777324     7.451278335     5.845410582
 C       -8.072764821     8.142632657     5.259929757
 C      -11.165244111     7.427593285     7.312908904
 C      -11.446136389     6.121111506     7.171497647
 C      -12.569615852     5.439857661     7.806546028
 C      -13.477749602     6.098395794     8.639358307
 C      -14.538143169     5.407452169     9.226079976
 C      -14.713694499     4.040894711     8.990750770
 C      -13.804270250     3.377320293     8.155803445
 C      -12.746306379     4.069129783     7.572792212
Si      -16.106371283     3.098401452     9.752024037
 C      -17.246727436     4.242132849    10.693013069
 C      -17.072839052     2.249176437     8.395928337
 C      -15.395972399     1.827815365    10.923881395
 C       -5.437219219     9.346698706     3.682715624
 C       -5.471722877    11.216960692     6.093735283
 C       -3.522698891    13.260024582     2.442678558
 C       -2.422547200    13.599548850    -0.385316196
 C       -0.608625635    -0.907963484    -1.516258419
 C       -0.635602594    -0.848740233     1.538507351
 H        0.907320075     2.483291095     1.381311538
 H        0.097874537     4.771215680     1.380387783
 H       -3.062873649     3.697202289    -1.336664157
 H       -2.281042920     1.394679467    -1.373319371
 H       -2.935225152     5.920022064    -0.631312283
 H       -0.642871538     6.648072938     1.319326743
 H       -0.508112207     8.864341506     2.025234670
 H       -1.279377542    11.171762976     2.062862824
 H       -4.479120396    10.098527386    -0.688240197
 H       -3.674698621     7.804785111    -0.690911065
 H       -5.960702700    11.976304510     0.699142438
 H       -5.028642448    13.860943676    -1.612059019
 H       -6.614312163    14.551321195    -3.125142556
 H       -8.930352072    14.590144195    -4.004714383
 H      -10.160893743    11.938161260    -0.836801490
 H       -7.863431575    11.885816667     0.025211410
 H      -12.702380691    12.240888053    -3.568045244
 H      -12.165647911    11.935359609    -1.890831789
 H      -11.232331502    11.283984362    -3.270799516
 H      -10.235361960    17.462992440    -1.483013373
 H       -9.192160644    16.007496952    -1.510066022
 H       -8.922597240    17.309624351    -0.302833428
 H      -11.985239336    14.384122472     1.648197495
 H      -11.040119942    12.606032767     3.036246374
 H       -7.064060647    13.879952451     1.983131600
 H       -7.985943291    15.617808171     0.550181154
 H       -9.266393845    11.441741325     3.937884744
 H       -6.391481229    12.401664970     3.187921326
 H       -8.721519546    11.241207671     6.550761496
 H      -10.562150843    10.010930654     7.560299284
 H       -9.247472060     6.387356739     5.645677914
 H       -7.395202593     7.573987909     4.616391971
 H      -11.794166207     8.067588384     7.938860764
 H      -10.817260528     5.480507993     6.546111425
 H      -13.363991876     7.162538112     8.838646199
 H      -15.215403970     5.977140385     9.868239503
 H      -13.891400602     2.309505102     7.936183698
 H      -12.049663009     3.536882750     6.927573921
 H      -11.051587933    15.459884791    -2.802904386
 H      -12.589771282    14.723875670    -3.304452143
 H      -13.275760429    14.317594329    -1.114860437
 H      -11.688278792    13.755790895    -0.606271601
 H      -12.236310136    16.762042322    -1.068058468
 H      -12.671192089    15.969207672     0.457156869
 H        2.269520075    -1.028047786    -0.054645285
 H        2.279382700     0.466384517     0.912853136
 H        2.268541964     0.558295026    -0.866437597
 H      -18.103247253     3.688692104    11.117950391
 H      -17.656617365     5.032163985    10.038709069
 H      -16.725046468     4.736366553    11.531802064
 H      -17.474846212     2.982183206     7.673021218
 H      -16.443259282     1.539796020     7.830589419
 H      -17.927590185     1.682865428     8.805707347
 H      -14.815750348     2.309205507    11.732112656
 H      -16.192383728     1.227281556    11.397379803
 H      -14.716840476     1.130517979    10.402006055
 H       -6.001902327     8.925197584     2.831128062
 H       -4.576479946     9.896523509     3.258516241
 H       -5.026350606     8.502793239     4.264390370
 H       -6.064201110    11.913299794     6.713352497
 H       -5.065321871    10.440028928     6.766101648
 H       -4.617453938    11.781931658     5.681728559
 H       -4.005542977    12.571327426     3.158349409
 H       -2.491080704    13.430799344     2.797088856
 H       -4.056318970    14.226513612     2.498490774
 H       -2.419278434    13.224039141    -1.424917515
 H       -2.738356264    14.657386013    -0.410853193
 H       -1.377933838    13.573031767    -0.027044100
 H       -0.312137952    -0.384762503    -2.443305457
 H       -0.189777982    -1.929088616    -1.564262622
 H       -1.708651856    -1.003189635    -1.522039549
 H       -0.289928350    -0.335311695     2.453674502
 H       -1.740244907    -0.858516674     1.564704513
 H       -0.291020593    -1.896380332     1.592162056

