139   

Si        0.000000000     0.000000000     0.000000000
 C        1.868508142     0.000000000     0.000000000
 C       -0.613405434     1.739857102     0.000000000
 C       -0.090112531     2.656337779    -0.919981295
 C       -0.538492597     3.975392288    -0.938096910
 C       -1.520569750     4.408937202    -0.041747040
 C       -2.044424594     3.490023300     0.875742951
 C       -1.597567957     2.170383412     0.896636523
 C       -2.016670663     5.781117426    -0.028527975
 C       -1.590504361     6.748509209    -0.857966675
 C       -2.077499981     8.123216282    -0.855553513
 C       -3.057135762     8.576416531     0.030664877
 C       -3.491854411     9.902067639    -0.004733095
 C       -2.973609759    10.793981637    -0.946577108
 C       -1.995925460    10.338715854    -1.843451784
 C       -1.551545070     9.021465112    -1.794100234
Si       -3.516547037    12.556057333    -1.033144660
 C       -2.038301930    13.639691887    -0.963075280
 C       -0.784083916    13.180054391    -0.864788128
 C        0.415537911    14.013110582    -0.806620788
 C        1.659541638    13.375169098    -0.704007268
 C        2.834842433    14.105378895    -0.644598485
 C        2.809976971    15.510499699    -0.756909253
 C        1.560681888    16.150599315    -0.871482991
 C        0.386768004    15.407955946    -0.872926825
 N        3.999421577    16.265681382    -0.698050757
 C        5.265422438    15.545484533    -0.923751099
 C        3.966311613    17.579455147    -1.365899986
 C        5.395170350    14.943389748    -2.335238947
 C        6.069448681    13.560340154    -2.286983198
 N        6.046692102    12.829260726    -3.569721021
 C        4.721926785    12.506291944    -4.007997787
 C        4.078043026    11.437507948    -3.361847788
 C        2.793042488    11.071066148    -3.736871128
 C        2.118764797    11.754435510    -4.759940316
 C        2.771027211    12.811692788    -5.400474536
 C        4.060735970    13.185366968    -5.038206517
 C        6.895120352    13.457372496    -4.598760660
 C        0.760871694    11.336648012    -5.127400994
 C        0.042835173    11.929681961    -6.089773813
Si       -1.652064607    11.497622565    -6.632807012
 C       -2.344094836    10.078985221    -5.682337587
 C       -1.678861677     8.846511940    -5.713332076
 C       -2.176564813     7.754436717    -5.005349656
 C       -3.362753509     7.859799445    -4.272064264
 C       -4.031823138     9.089817400    -4.251273711
 C       -3.528042481    10.187418955    -4.946046838
 C       -3.921978112     6.744825458    -3.516057791
 C       -3.382212814     5.515915996    -3.451281690
 C       -3.947759153     4.405148426    -2.692522946
 C       -5.126603929     4.526434924    -1.950746585
 C       -5.634188095     3.441242244    -1.239330049
 C       -4.981296788     2.203091400    -1.267804435
 C       -3.805556469     2.076988869    -2.015259656
 C       -3.295365217     3.166471792    -2.718276283
Si       -5.677848096     0.785259023    -0.315557464
 C       -7.491433916     0.599976091    -0.729588167
 C       -4.787901450    -0.803625567    -0.737078369
 C       -5.464806182     1.147590411     1.506846650
 C       -2.706740124    13.024213520    -6.401325041
 C       -1.601545447    11.031284855    -8.441440501
 C       -4.420268607    12.861675947    -2.638577446
 C       -4.633585351    12.977586284     0.404733512
 C       -0.634827657    -0.835933769    -1.548664809
 C       -0.628799254    -0.919323209     1.501036367
 H        0.678424467     2.376723327    -1.645420883
 H       -0.115548813     4.670408604    -1.661049538
 H       -2.816655604     3.805017111     1.575126029
 H       -2.042906911     1.497893700     1.634417876
 H       -2.788978604     5.983636968     0.718298168
 H       -0.824241573     6.538307562    -1.610171296
 H       -3.487148559     7.895862053     0.762696300
 H       -4.250287681    10.202391022     0.722284711
 H       -1.566948554    10.986839423    -2.616977807
 H       -0.797709985     8.683664556    -2.503637293
 H       -2.254587339    14.715920351    -1.009708754
 H       -0.549536117    12.105030400    -0.804798940
 H        1.707379357    12.285606827    -0.659080912
 H        3.774103563    13.573187488    -0.531285734
 H        1.498901211    17.231454717    -0.943851762
 H       -0.569002295    15.927834332    -0.943302379
 H        4.967560048    18.039425471    -1.356597213
 H        3.299653167    18.255113927    -0.799850760
 H        3.617976048    17.527532984    -2.410259621
 H        7.938823364    13.454780655    -4.239359559
 H        6.619415995    14.490446656    -4.857186903
 H        6.865078819    12.845042438    -5.516889249
 H        4.598848505    10.899316277    -2.571894965
 H        2.302209650    10.242297256    -3.225824246
 H        2.268328980    13.362408790    -6.196057710
 H        4.540296233    14.014700024    -5.549779101
 H        0.383331214    10.493385760    -4.534431877
 H        0.457870367    12.780785658    -6.657097302
 H       -0.753732454     8.700128509    -6.278891841
 H       -1.637542238     6.809542585    -5.035496448
 H       -4.951723890     9.195391336    -3.678544370
 H       -4.094915288    11.120874196    -4.891961971
 H       -4.843488894     6.977695060    -2.973952502
 H       -2.458378276     5.281542733    -3.986886449
 H       -5.653640619     5.478253524    -1.915993114
 H       -6.554043361     3.599658893    -0.670189453
 H       -3.249371620     1.137077524    -2.068876692
 H       -2.373255877     3.050829833    -3.284747908
 H        6.105417143    16.247378494    -0.723266979
 H        5.352768891    14.759384213    -0.137797545
 H        4.391288924    14.842452026    -2.800117320
 H        5.954760392    15.626597675    -2.995275467
 H        7.130466783    13.656464900    -1.967902101
 H        5.569421592    12.912428377    -1.529613672
 H        2.271139179    -1.027826306     0.020438732
 H        2.268093541     0.530857783     0.883338918
 H        2.276390058     0.499090632    -0.896332979
 H       -7.943618631    -0.248996850    -0.188104695
 H       -7.636556224     0.420836377    -1.810526838
 H       -8.064784302     1.505895419    -0.466274338
 H       -4.800679301    -0.996927204    -1.824441794
 H       -3.733005576    -0.773876894    -0.411538201
 H       -5.261185381    -1.669501083    -0.241527949
 H       -6.003904815     2.065672641     1.799787406
 H       -5.846912819     0.321077867     2.129991202
 H       -4.399038718     1.295395495     1.759912183
 H       -2.685677256    13.371149886    -5.350966231
 H       -2.344343373    13.858699232    -7.027582747
 H       -3.758842525    12.837122497    -6.677838686
 H       -0.958775877    10.149390164    -8.613792339
 H       -2.610649988    10.781261793    -8.815922314
 H       -1.209236013    11.854529886    -9.063377195
 H       -3.740391265    12.745142491    -3.502599203
 H       -5.257464873    12.153446796    -2.768013081
 H       -4.836249497    13.883232903    -2.677622096
 H       -4.124147156    12.805295309     1.370469427
 H       -4.937404560    14.038908964     0.379529539
 H       -5.554170183    12.368883494     0.395565307
 H       -0.289499197    -0.312836073    -2.458046427
 H       -0.286148886    -1.881231661    -1.611918765
 H       -1.739527782    -0.850396605    -1.575390801
 H       -0.310790531    -0.426515999     2.437304311
 H       -1.731979577    -0.977553878     1.510215112
 H       -0.243592961    -1.954034049     1.525805173

