139   

Si        0.000000000     0.000000000     0.000000000
 C        1.869479253     0.000000000     0.000000000
 C       -0.636288596     1.733282625     0.000000000
 C        0.099067557     2.764430866    -0.594395634
 C       -0.383558543     4.072683045    -0.593132919
 C       -1.612357438     4.380334296    -0.002569129
 C       -2.349543757     3.345854642     0.588424122
 C       -1.870046301     2.038337088     0.588544298
 C       -2.157309109     5.733779710     0.022898946
 C       -1.553920935     6.811741638    -0.505863832
 C       -2.100157082     8.164701650    -0.479621654
 C       -3.329979434     8.469188953     0.112098477
 C       -3.814624463     9.775781341     0.114752157
 C       -3.084932595    10.807015599    -0.489414672
 C       -1.855634826    10.504440949    -1.084907655
 C       -1.368139607     9.199152715    -1.075654940
Si       -3.752651907    12.526120523    -0.469535305
 C       -3.654679607    13.200594019     1.228766581
 C       -3.167676581    12.526947156     2.279350626
 C       -3.087049465    13.060992765     3.638398393
 C       -2.554393674    12.248929973     4.649295077
 C       -2.453581248    12.701892659     5.954295682
 C       -2.844601508    14.017582528     6.286209892
 C       -3.382950931    14.831206462     5.271461348
 C       -3.522688129    14.344515647     3.978710661
 N       -2.735918916    14.461981563     7.615982375
 C       -1.615689212    13.925475018     8.413538279
 C       -3.014429661    15.885108543     7.865530695
 C       -0.227355844    14.025975523     7.755350293
 C        0.433559284    15.405771371     7.939240507
 N        1.133181876    15.914863991     6.738220706
 C        0.230489848    16.317275144     5.705332918
 C       -0.478480342    17.511645336     5.927762353
 C       -1.373556136    17.971950314     4.975717740
 C       -1.566669796    17.276098683     3.772313888
 C       -0.842534537    16.102476012     3.549754245
 C        0.056043689    15.626345828     4.500514276
 C        2.227132139    15.030932470     6.298823214
 C       -2.527665418    17.816782351     2.808488456
 C       -2.816493692    17.265149540     1.622506680
Si       -4.030080984    17.984421309     0.451122325
 C       -4.728418907    19.524123444     1.190058869
 C       -5.955617525    19.506525207     1.860641060
 C       -6.476981339    20.674356614     2.416540038
 C       -5.778735195    21.881623218     2.326701280
 C       -4.545596423    21.895611423     1.661198756
 C       -4.025176991    20.732202477     1.100532669
 C       -6.285201383    23.127502240     2.893035737
 C       -7.449381784    23.249566346     3.552989266
 C       -7.956781706    24.494941626     4.119712196
 C       -7.262303450    25.704188238     4.026154082
 C       -7.784910859    26.871089851     4.582753998
 C       -9.020545806    26.856243603     5.238672557
 C       -9.718822599    25.645830884     5.332540382
 C       -9.191093543    24.480272276     4.782537973
Si       -9.714448509    28.400326981     5.976449657
 C       -9.130198028    29.890802955     5.011147337
 C      -11.582633751    28.346274688     5.933306726
 C       -9.125085461    28.521152938     7.745527438
 C       -3.171647189    18.366765305    -1.162724013
 C       -5.394356910    16.743607536     0.147568167
 C       -2.762579556    13.639951051    -1.599469730
 C       -5.537898513    12.513219954    -1.022342650
 C       -0.631339127    -0.856988491    -1.535664720
 C       -0.604322363    -0.902019879     1.522059089
 H        1.066972405     2.586371298    -1.071130339
 H        0.209154285     4.856899750    -1.060845554
 H       -3.309695366     3.563088211     1.053117316
 H       -2.490154243     1.273824830     1.064724647
 H       -3.128500738     5.825995519     0.518346799
 H       -0.583393999     6.719606571    -1.002111134
 H       -3.919708838     7.683164484     0.580513535
 H       -4.778829631     9.954287621     0.601105016
 H       -1.242441496    11.269171954    -1.569317538
 H       -0.408035229     8.984240353    -1.540909308
 H       -4.036773582    14.227589388     1.333437677
 H       -2.780862500    11.500242559     2.197067993
 H       -2.221401677    11.237965396     4.409971734
 H       -2.074342359    12.033882156     6.721541627
 H       -3.689931122    15.852314486     5.479217480
 H       -3.955308053    14.995483289     3.215657317
 H       -2.914719667    16.107777470     8.939992274
 H       -4.064221481    16.099296171     7.590882923
 H       -2.356561167    16.568502308     7.300169721
 H        2.963964302    14.954227859     7.117065963
 H        2.741046686    15.492879539     5.437314003
 H        1.914248773    14.013871185     6.017635248
 H       -0.306768463    18.072562071     6.844279765
 H       -1.924126887    18.894900684     5.160498158
 H       -0.983084685    15.539241441     2.625412182
 H        0.596441512    14.703978526     4.306463979
 H       -3.004624379    18.744942630     3.159913277
 H       -2.332846515    16.336965878     1.282181001
 H       -6.545152128    18.591225846     1.968841935
 H       -7.437704910    20.635812935     2.926782320
 H       -3.985689667    22.825578503     1.579956888
 H       -3.058489598    20.804827232     0.593251427
 H       -5.636100469    23.995336858     2.743153672
 H       -8.098821949    22.381743110     3.702133328
 H       -6.301727526    25.744277470     3.515511040
 H       -7.194046979    27.785471913     4.478895448
 H      -10.688833150    25.573378857     5.832252252
 H       -9.748325677    23.549083536     4.867736348
 H       -1.609470653    14.426665426     9.406253572
 H       -1.851169916    12.853951997     8.623663176
 H        0.430118484    13.236883566     8.162098466
 H       -0.316428027    13.797244942     6.671529014
 H       -0.321106366    16.164804460     8.242017289
 H        1.180099706    15.369794986     8.763572271
 H        2.268166871    -1.027964732     0.067152383
 H        2.269654500     0.567903023     0.859438667
 H        2.279517402     0.453026005    -0.919528236
 H       -9.586835615    30.819843373     5.396640527
 H       -9.400907809    29.806646767     3.942973032
 H       -8.034558925    30.013526306     5.069100934
 H      -11.954330883    28.194550283     4.903678540
 H      -11.983943591    27.528369091     6.556797103
 H      -12.018070898    29.290018728     6.307408960
 H       -8.022275414    28.560561064     7.800320034
 H       -9.516978289    29.427486345     8.239656920
 H       -9.452557737    27.648530825     8.338831406
 H       -2.311725847    19.044691727    -1.016727453
 H       -2.788232720    17.449415476    -1.643815359
 H       -3.861229403    18.853956098    -1.875303635
 H       -5.763944949    16.299986661     1.089697040
 H       -6.254067447    17.215796533    -0.360916652
 H       -5.049323530    15.915706713    -0.496191089
 H       -1.720165738    13.747036480    -1.249034581
 H       -2.734119781    13.242091176    -2.629040074
 H       -3.198806090    14.653554600    -1.648072827
 H       -6.170193312    11.921677068    -0.336342911
 H       -5.957891426    13.533583103    -1.060791337
 H       -5.638927611    12.071670041    -2.029963587
 H       -0.285319070    -0.346255179    -2.452335020
 H       -0.283600202    -1.903793317    -1.584583988
 H       -1.735813114    -0.869712233    -1.563889362
 H       -0.313506519    -0.367892555     2.444789114
 H       -1.703462421    -1.005033404     1.528321370
 H       -0.177545575    -1.919232639     1.579020135

