139   

Si        0.000000000     0.000000000     0.000000000
 C        1.868953163     0.000000000     0.000000000
 C       -0.658955583     1.724406911     0.000000000
 C        0.188913950     2.834857667     0.042780487
 C       -0.334311560     4.128182930     0.041805269
 C       -1.714538779     4.340072846    -0.001608613
 C       -2.563467531     3.225520768    -0.043835219
 C       -2.044308487     1.933932062    -0.042618380
 C       -2.307159163     5.673606450    -0.004389357
 C       -1.609107095     6.821343336     0.033584479
 C       -2.203069514     8.154306522     0.030751612
 C       -1.357213128     9.269643118     0.073250576
 C       -1.879549202    10.561698972     0.072288875
 C       -3.262192715    10.766948754     0.033298304
 C       -4.110704503     9.653103587    -0.009098934
 C       -3.585299932     8.362827449    -0.012341696
Si       -3.996765808    12.459213419     0.030531259
 C       -4.857154635    12.734796861    -1.566348123
 C       -4.910491189    11.815896113    -2.539408318
 C       -5.584669328    11.992685914    -3.827241476
 C       -5.548299759    10.928949668    -4.742229518
 C       -6.166331513    11.032181066    -5.977753444
 C       -6.863553944    12.205426663    -6.317708348
 C       -6.902819094    13.271554692    -5.411361944
 C       -6.254470347    13.165313781    -4.183897471
 N       -7.471562015    12.228737869    -7.611224440
 C       -8.666061525    11.358518834    -7.694804298
 C       -7.705586510    13.573921149    -8.164892198
 C       -9.893443950    11.886915195    -6.927539135
 C      -10.659533909    10.786496093    -6.170693450
 N      -10.111387454    10.421366642    -4.849288135
 C       -9.846581662    11.473720561    -3.954152652
 C      -10.661063471    12.627029734    -3.968108978
 C      -10.412377344    13.671132354    -3.092640554
 C       -9.387071547    13.591142870    -2.140176851
 C       -8.607146274    12.432181941    -2.100696011
 C       -8.835107269    11.381392355    -2.979068483
 C       -9.121939470     9.332724384    -4.899657377
 C       -9.173367682    14.726553142    -1.243529606
 C       -8.230047412    14.774870859    -0.293352538
Si       -7.972396691    16.201957085     0.822943448
 C       -9.200374165    17.518851204     0.422150874
 C       -8.846736434    18.624394314    -0.357596747
 C       -9.784694451    19.613269797    -0.653482834
 C      -11.098725366    19.513143413    -0.188752361
 C      -11.453418191    18.400418400     0.585794910
 C      -10.517922729    17.414315515     0.887116950
 C      -12.113485953    20.522501123    -0.473063018
 C      -11.905076376    21.633044561    -1.200527227
 C      -12.920159941    22.642274256    -1.484660464
 C      -14.233030493    22.544425554    -1.015423388
 C      -15.171259566    23.532711742    -1.311120694
 C      -14.814763854    24.646463476    -2.079049204
 C      -13.499857596    24.746636832    -2.550761008
 C      -12.566594003    23.754766214    -2.259438068
Si      -16.055651392    25.956213165    -2.471704708
 C      -17.331575076    26.060191302    -1.109244010
 C      -15.206196920    27.613786595    -2.633141695
 C      -16.888270295    25.511624711    -4.084288791
 C       -8.189572873    15.642194761     2.592698205
 C       -6.227112038    16.830136654     0.584417061
 C       -5.230047335    12.574654276     1.429530020
 C       -2.687570549    13.774132404     0.236990419
 C       -0.614605718    -0.877432650    -1.531620541
 C       -0.618356047    -0.875141341     1.531170547
 H        1.277054001     2.732624584     0.077739578
 H        0.348038004     4.975821397     0.075623561
 H       -3.641974050     3.368682005    -0.077251022
 H       -2.755625910     1.103836023    -0.075957015
 H       -3.400514250     5.687623584    -0.040011641
 H       -0.515744486     6.807511604     0.070159078
 H       -0.278264644     9.129616383     0.106276010
 H       -1.170338577    11.393435246     0.103018877
 H       -5.200799865     9.753625147    -0.040402200
 H       -4.264080386     7.512605499    -0.046399974
 H       -5.332677723    13.721376007    -1.675614173
 H       -4.434026676    10.827351157    -2.444648334
 H       -5.015819159    10.012628641    -4.485124508
 H       -6.103971595    10.219239645    -6.698406345
 H       -7.443383164    14.183104739    -5.650754498
 H       -6.295357994    14.005771144    -3.488680146
 H       -7.973103163    13.470537072    -9.230765760
 H       -6.766337966    14.153045962    -8.117582745
 H       -8.498520922    14.148510322    -7.662421960
 H       -9.418263759     8.582231938    -5.649612659
 H       -9.106267466     8.818000518    -3.920973506
 H       -8.099195793     9.678476528    -5.132530615
 H      -11.488556785    12.704448800    -4.666670092
 H      -11.037973543    14.563823261    -3.138541512
 H       -7.798141576    12.342765085    -1.372131464
 H       -8.197297242    10.504486849    -2.918761344
 H       -9.872921971    15.555847105    -1.426163280
 H       -7.541628049    13.932799176    -0.124970810
 H       -7.836081900    18.755150094    -0.754435201
 H       -9.482115631    20.467477446    -1.256395616
 H      -12.471974700    18.302969576     0.957096289
 H      -10.853465236    16.568249106     1.494480338
 H      -13.097444484    20.316066021    -0.041542955
 H      -10.921297982    21.839973577    -1.632129938
 H      -14.535007089    21.690207399    -0.411903814
 H      -16.182484461    23.399508244    -0.916629036
 H      -13.163588836    25.593742031    -3.155000563
 H      -11.550172335    23.849656811    -2.637260986
 H       -8.908447523    11.235355314    -8.773664574
 H       -8.378878070    10.348569375    -7.327829785
 H       -9.573355565    12.673185820    -6.210550845
 H      -10.581082614    12.397530590    -7.625480694
 H      -11.713590133    11.117046309    -6.002733646
 H      -10.733848135     9.869022756    -6.794450008
 H        2.266477471    -1.030819521    -0.010859641
 H        2.275034124     0.500152259     0.897279584
 H        2.273950635     0.518733720    -0.887243030
 H      -18.043121666    26.885296479    -1.290922014
 H      -16.855393775    26.242576887    -0.128729335
 H      -17.920128365    25.129826598    -1.026705730
 H      -14.633284341    27.859906847    -1.720660817
 H      -14.503049988    27.633012340    -3.484000154
 H      -15.939624474    28.424111850    -2.792960298
 H      -17.397428948    24.533313712    -4.017296599
 H      -17.645358626    26.263722377    -4.367592033
 H      -16.157198939    25.445371322    -4.910000584
 H       -9.181935477    15.184820638     2.754892372
 H       -7.431123558    14.891276957     2.875977163
 H       -8.096536664    16.491720317     3.292837241
 H       -6.019125668    17.056984624    -0.476641256
 H       -6.051501669    17.751591549     1.167191249
 H       -5.482905824    16.082994233     0.913067419
 H       -6.133560487    11.970549572     1.230895156
 H       -4.788687705    12.208097140     2.374202133
 H       -5.553860456    13.615696789     1.600470213
 H       -1.956832722    13.749801502    -0.591883809
 H       -3.131616595    14.785740196     0.251650859
 H       -2.129094559    13.643353065     1.180693751
 H       -0.271367371    -0.366500728    -2.449620292
 H       -0.248192092    -1.918286262    -1.573086629
 H       -1.717832635    -0.910502054    -1.565857523
 H       -0.273114905    -0.365986696     2.449464395
 H       -1.721893178    -0.902196330     1.565000241
 H       -0.257228894    -1.917810929     1.572397355

