139   

Si        0.000000000     0.000000000     0.000000000
 C        1.869564597     0.000000000     0.000000000
 C       -0.637164673     1.732745654     0.000000000
 C        0.103838980     2.766714896    -0.582339383
 C       -0.379463252     4.074800809    -0.581148281
 C       -1.615842710     4.378862566    -0.004559089
 C       -2.358817942     3.341463356     0.574113528
 C       -1.877672390     2.034548088     0.575913603
 C       -2.161924578     5.731887056     0.020348159
 C       -1.552686222     6.812706748    -0.495779186
 C       -2.100674425     8.165091959    -0.469774010
 C       -1.357981937     9.204278619    -1.046476660
 C       -1.840241044    10.510592391    -1.045486294
 C       -3.083244482    10.806986831    -0.472707712
 C       -3.826867068     9.771745581     0.103005376
 C       -3.337959701     8.465781721     0.106312027
Si       -3.728054689    12.536157866    -0.468142741
 C       -5.542328259    12.471439321    -0.225356018
 C       -6.212020452    13.031802254     0.790499198
 C       -7.664908661    12.961125753     0.955042783
 C       -8.254049397    13.588959063     2.062526547
 C       -9.623568825    13.551540411     2.263923940
 C      -10.466691993    12.914984874     1.326735748
 C       -9.876739780    12.284286204     0.215434276
 C       -8.497190744    12.293128064     0.053085098
 N      -11.854624017    12.888580944     1.550762634
 C      -12.453100952    14.093749430     2.151883938
 C      -12.693135522    12.297447107     0.495629450
 C      -12.185645648    15.383362320     1.348944447
 C      -13.285537124    16.437093746     1.571656458
 N      -14.331756603    16.464463572     0.524404487
 C      -15.018782687    15.231326866     0.363659654
 C      -15.756460822    14.749876784     1.464085352
 C      -16.447499163    13.553502550     1.368823632
 C      -16.455304269    12.816520154     0.174148510
 C      -15.743678690    13.311500911    -0.920720301
 C      -15.039535269    14.508396467    -0.837697802
 C      -13.864599634    17.102259971    -0.719189097
 C      -17.202350311    11.557037268     0.127022186
 C      -17.280082686    10.772776516    -0.955560763
Si      -18.201483766     9.191408249    -1.059767917
 C      -19.477776376     9.351648996    -2.381419944
 C      -19.939379319    10.614677825    -2.771554890
 C      -20.903132461    10.735366088    -3.769582598
 C      -21.433384006     9.599628088    -4.395472803
 C      -20.973282659     8.340243728    -3.999841313
 C      -20.006448061     8.215554547    -3.002839461
 C      -22.441212642     9.777712119    -5.435830136
 C      -23.026040922     8.775853172    -6.113947074
 C      -24.033812481     8.954455130    -7.154209938
 C      -24.494112903    10.213196679    -7.550092576
 C      -25.459027868    10.337768048    -8.549243597
 C      -25.979018921     9.204047865    -9.182271084
 C      -25.518657980     7.941173310    -8.787951251
 C      -24.561086291     7.819381313    -7.784156633
Si      -27.256763582     9.359245023   -10.506120103
 C      -27.142988468    11.037817310   -11.321420360
 C      -26.989279005     8.039152889   -11.802612407
 C      -28.940952652     9.149574829    -9.724678005
 C      -16.981383112     7.845808392    -1.496037753
 C      -19.055389996     8.781834416     0.548529408
 C       -2.879632934    13.484149995     0.898478093
 C       -3.392749812    13.351471733    -2.115824301
 C       -0.631063515    -0.857397681    -1.535768234
 C       -0.603899774    -0.901909131     1.522363457
 H        1.077289296     2.591057309    -1.048608788
 H        0.218493036     4.861627988    -1.037578623
 H       -3.324185987     3.556389888     1.029077777
 H       -2.501619950     1.268128690     1.043849365
 H       -3.138958649     5.821572157     0.504772853
 H       -0.575981941     6.724007072    -0.980269554
 H       -0.392086188     8.990924343    -1.500098455
 H       -1.216985974    11.280221554    -1.508523022
 H       -4.804363219     9.946882204     0.565686208
 H       -3.934231613     7.677667042     0.562950627
 H       -6.071136345    11.914229609    -1.015736157
 H       -5.713451072    13.594990842     1.590677283
 H       -7.623844090    14.106631435     2.786313480
 H      -10.046452385    14.014777181     3.150708129
 H      -10.487941694    11.779352058    -0.525993293
 H       -8.064588837    11.781645702    -0.808487186
 H      -13.752431794    12.296451805     0.814880671
 H      -12.404961981    11.241513451     0.347494864
 H      -12.634806173    12.830103092    -0.467085581
 H      -13.533746865    18.129913578    -0.486021656
 H      -14.708789417    17.190309518    -1.425530435
 H      -13.035679664    16.576149018    -1.217997666
 H      -15.788494181    15.329979715     2.384095697
 H      -17.005246798    13.188069885     2.231617594
 H      -15.739305848    12.760475846    -1.862716908
 H      -14.494725796    14.862568751    -1.708097554
 H      -17.701142923    11.313716200     1.074381588
 H      -16.768156370    11.044043631    -1.893672956
 H      -19.562741776    11.536494842    -2.315706375
 H      -21.247729157    11.725447124    -4.063063741
 H      -21.368966137     7.442012613    -4.470326768
 H      -19.684614814     7.204907643    -2.737067160
 H      -22.706055699    10.819077129    -5.641970378
 H      -22.761565618     7.734407063    -5.907734549
 H      -24.101353111    11.111878631    -7.077424702
 H      -25.780912880    11.348879844    -8.813577297
 H      -25.888300010     7.019938905    -9.246755892
 H      -24.217950120     6.829111791    -7.489994086
 H      -13.548969218    13.917967117     2.257816397
 H      -12.065727125    14.196480323     3.190529052
 H      -11.197026190    15.795358228     1.624489574
 H      -12.100702015    15.143132185     0.271490824
 H      -13.788721862    16.280629511     2.552042408
 H      -12.835680295    17.454101854     1.626219322
 H        2.267893166    -1.027728043     0.072527936
 H        2.269976193     0.572312619     0.856387694
 H        2.279394297     0.448072944    -0.922025211
 H      -27.853364016    11.121063843   -12.163247742
 H      -26.129953539    11.219783415   -11.723618415
 H      -27.373892443    11.853601432   -10.614194945
 H      -25.971633184     8.099164904   -12.229419968
 H      -27.116614569     7.024278312   -11.387245252
 H      -27.705720624     8.147099225   -12.636294285
 H      -29.123879560     9.917496233    -8.951493539
 H      -29.746449464     9.232578834   -10.475259318
 H      -29.038311229     8.162913377    -9.237128714
 H      -16.517529318     8.026499395    -2.482665061
 H      -16.166116687     7.790683720    -0.751601714
 H      -17.465157910     6.854081862    -1.532205320
 H      -19.781811234     9.566081159     0.830110089
 H      -19.613572571     7.830923643     0.474901818
 H      -18.331298076     8.679552013     1.376338649
 H       -3.064504830    13.019028906     1.884118657
 H       -1.785466551    13.511450266     0.749026739
 H       -3.236174866    14.528283048     0.946506001
 H       -3.825438400    12.768014153    -2.948534851
 H       -3.834623469    14.363529806    -2.155832715
 H       -2.310525463    13.452814248    -2.307416960
 H       -0.286285326    -0.345622646    -2.452283062
 H       -0.281800894    -1.903587620    -1.585423711
 H       -1.735478874    -0.871575485    -1.563346954
 H       -0.308927471    -0.369668462     2.444906671
 H       -1.703344786    -1.000947735     1.531424614
 H       -0.180473471    -1.920588602     1.577107606

