139   

Si        0.000000000     0.000000000     0.000000000
 C        1.868919702     0.000000000     0.000000000
 C       -0.661706873     1.723315758     0.000000000
 C        0.181169487     2.834733152    -0.089405760
 C       -0.345110451     4.126873775    -0.087283853
 C       -1.723505095     4.336205174     0.001901406
 C       -2.567480727     3.220537733     0.089966400
 C       -2.045301929     1.930269688     0.088753888
 C       -2.320303529     5.667830654     0.007828077
 C       -1.629308161     6.817835096    -0.069935902
 C       -2.230769474     8.147605894    -0.063640027
 C       -1.392807919     9.267461219    -0.150706813
 C       -1.921912540    10.555809168    -0.148290945
 C       -3.305609012    10.752955649    -0.066531837
 C       -4.144844596     9.637178389     0.019675258
 C       -3.611132965     8.349106435     0.024067122
Si       -4.017626532    12.454493093    -0.062515091
 C       -5.753535043    12.345379577    -0.641739686
 C       -6.833140715    12.715004281     0.059079271
 C       -8.207531209    12.612654962    -0.438224443
 C       -9.259191458    13.033068236     0.390838787
 C      -10.575556735    12.956673683    -0.033000107
 C      -10.876792913    12.484894056    -1.326774584
 C       -9.829406442    12.060024645    -2.157462885
 C       -8.515629856    12.106903001    -1.703296628
 N      -12.243380361    12.431431485    -1.698694587
 C      -12.945343810    13.729732701    -1.717398340
 C      -12.567769925    11.567388537    -2.843649906
 C      -12.814561659    14.556201572    -3.008688137
 C      -11.407657566    15.130486125    -3.258705456
 N      -11.044149707    16.299616426    -2.441143598
 C      -11.954273955    17.363884139    -2.385513648
 C      -12.668663666    17.724842786    -3.550138286
 C      -13.573155542    18.772665043    -3.519962481
 C      -13.770709218    19.529409846    -2.355401329
 C      -13.040926362    19.188986687    -1.213136936
 C      -12.141162291    18.131285590    -1.219591936
 C      -10.296089884    15.980868431    -1.218389171
 C      -14.739583987    20.626241888    -2.379180099
 C      -15.009726569    21.413557466    -1.329600769
Si      -16.212882338    22.794280380    -1.318177387
 C      -17.495163077    22.437493483    -0.039666038
 C      -17.691288636    21.132221055     0.423057599
 C      -18.659910030    20.861697970     1.389047393
 C      -19.457612245    21.885706935     1.907016509
 C      -19.262151018    23.191706284     1.437801116
 C      -18.293756530    23.466009599     0.475380320
 C      -20.482900248    21.649566135     2.918341377
 C      -20.769886120    20.449184163     3.450062076
 C      -21.794899177    20.212047501     4.461347923
 C      -22.591383633    21.235632949     4.982395906
 C      -23.559725955    20.963912928     5.948224858
 C      -23.759374712    19.658095171     6.409073202
 C      -22.963437628    18.630533037     5.887677899
 C      -21.991997689    18.905956241     4.928429890
Si      -25.041405441    19.297668085     7.687919831
 C      -26.455975870    20.510469861     7.535047151
 C      -25.703745140    17.564363306     7.459129671
 C      -24.251186805    19.455849310     9.373692885
 C      -15.292952111    24.361589770    -0.883901764
 C      -17.060341705    22.988320283    -2.970541640
 C       -3.907059314    13.144027456     1.668320394
 C       -3.082791093    13.553034003    -1.249121047
 C       -0.619798077    -0.874554574    -1.530860846
 C       -0.611874122    -0.879536290     1.531666066
 H        1.267513495     2.734176550    -0.162045056
 H        0.332996026     4.975614547    -0.156671269
 H       -3.644539411     3.361740095     0.160395981
 H       -2.752582284     1.099070784     0.159855224
 H       -3.412031320     5.678299350     0.082887202
 H       -0.538112790     6.808692702    -0.144660095
 H       -0.315126472     9.131973662    -0.219926161
 H       -1.219632170    11.390964122    -0.216649200
 H       -5.233825659     9.733269060     0.086386174
 H       -4.284624638     7.496613381     0.094668518
 H       -5.849466267    11.935548965    -1.660760133
 H       -6.769453339    13.127674721     1.074523070
 H       -9.040226113    13.411006013     1.390018294
 H      -11.385275503    13.244903359     0.634762504
 H      -10.032395814    11.686552513    -3.156821196
 H       -7.717388113    11.756658531    -2.359729779
 H      -13.665325135    11.469266090    -2.915658781
 H      -12.163002957    10.555927140    -2.658830894
 H      -12.185466177    11.927279574    -3.811577298
 H       -9.564755325    15.176641484    -1.422126533
 H      -10.932337912    15.655011976    -0.379722731
 H       -9.714211076    16.867779911    -0.906702847
 H      -12.507726322    17.181115948    -4.476337913
 H      -14.128746027    19.021720429    -4.424613929
 H      -13.175152850    19.761210961    -0.293451079
 H      -11.599326050    17.897513003    -0.308960794
 H      -15.233600107    20.745492925    -3.352612290
 H      -14.494151633    21.272627891    -0.365828251
 H      -17.098462740    20.289545103     0.051417466
 H      -18.790615223    19.838381217     1.736418323
 H      -19.873064717    24.003320831     1.828294884
 H      -18.185199570    24.503572013     0.148365687
 H      -21.029319893    22.543440170     3.233326404
 H      -20.223788600    19.555191312     3.134431967
 H      -22.459877368    22.259422860     4.636547617
 H      -24.149873915    21.806646426     6.318978388
 H      -23.074691514    17.591262307     6.209015858
 H      -21.382267907    18.093723060     4.536843043
 H      -14.024625492    13.506222965    -1.535475076
 H      -12.608741835    14.338552489    -0.848762369
 H      -13.115302038    13.946815042    -3.881242849
 H      -13.553114760    15.385128546    -2.968740661
 H      -10.639943913    14.336229615    -3.112266288
 H      -11.320012709    15.437473826    -4.329083350
 H        2.266315903    -1.030078106     0.041510088
 H        2.273920073     0.544964915     0.871434895
 H        2.275080358     0.473271312    -0.911615802
 H      -27.270515403    20.264790528     8.239460044
 H      -26.883827292    20.498933353     6.516148687
 H      -26.134615201    21.544505388     7.750408625
 H      -26.092809872    17.417151969     6.435302945
 H      -24.924879333    16.801508913     7.632926929
 H      -26.530874270    17.357120636     8.161217662
 H      -23.845177731    20.470861148     9.534180023
 H      -24.978682660    19.255284424    10.179684511
 H      -23.414206157    18.744634927     9.493760338
 H      -14.847904094    24.300413343     0.125748032
 H      -14.470219858    24.549710260    -1.597626485
 H      -15.957809893    25.242389771    -0.902341489
 H      -17.607927370    22.070235265    -3.251524580
 H      -17.793881734    23.814091189    -2.950830253
 H      -16.333833122    23.206383259    -3.773405767
 H       -4.454793706    12.510352847     2.389857861
 H       -2.858229563    13.198831969     2.012111903
 H       -4.329888473    14.162722393     1.725615109
 H       -3.055915271    13.118754678    -2.265026067
 H       -3.556010071    14.548884339    -1.327067985
 H       -2.038518853    13.706425755    -0.925047377
 H       -0.273523996    -0.367035388    -2.449571230
 H       -0.260988587    -1.918060863    -1.571212255
 H       -1.723435618    -0.898999384    -1.564639321
 H       -0.276668601    -0.362633319     2.449414885
 H       -1.714822195    -0.923229251     1.562384878
 H       -0.235632509    -1.916649963     1.577352110

