139   

Si        0.000000000     0.000000000     0.000000000
 C        1.869392450     0.000000000     0.000000000
 C       -0.636003717     1.733400338     0.000000000
 C        0.089159414     2.760600545     0.613661115
 C       -0.393240163     4.068974703     0.612356645
 C       -1.613385974     4.379897141     0.005697258
 C       -2.340707042     3.349248358    -0.603818079
 C       -1.860058959     2.042131098    -0.606337109
 C       -2.158179063     5.733406795    -0.020746272
 C       -1.563253908     6.809290302     0.522056818
 C       -2.110800132     8.161830635     0.493908192
 C       -1.384781811     9.195971128     1.100213407
 C       -1.867581551    10.502168192     1.098251361
 C       -3.094741930    10.802879205     0.494654347
 C       -3.821936835     9.773014919    -0.110854867
 C       -3.332062133     8.467430950    -0.113110779
Si       -3.739339884    12.531203358     0.488939532
 C       -5.549120729    12.468258455     0.203659171
 C       -6.193212927    13.037209726    -0.823357379
 C       -7.643026345    12.968111958    -1.022671815
 C       -8.201746160    13.606819731    -2.140755052
 C       -9.566324033    13.571156479    -2.374320111
 C      -10.424283920    12.918414513    -1.465496262
 C       -9.869667575    12.275352471    -0.348861004
 C       -8.493267742    12.286371198    -0.148910582
 N      -11.809484702    12.917942717    -1.762433447
 C      -12.441451150    14.249928073    -1.840758523
 C      -12.623070799    11.918896924    -1.053366855
 C      -12.944900159    14.844270972    -0.513761235
 C      -11.831245374    15.217388833     0.482220795
 N      -11.102587093    16.461830614     0.185513564
 C      -11.858229717    17.612692430    -0.077990599
 C      -13.052424045    17.839067144     0.642827985
 C      -13.814232717    18.969114225     0.398745678
 C      -13.400777582    19.937642516    -0.528362443
 C      -12.204289600    19.726145144    -1.218277368
 C      -11.435935329    18.589929027    -0.999871092
 C       -9.862207165    16.274520124    -0.577775185
 C      -14.245687551    21.112257363    -0.746352130
 C      -13.957645395    22.101574386    -1.602954162
Si      -15.009892608    23.573245639    -1.880339547
 C      -16.506945734    23.472701988    -0.805136876
 C      -17.655264196    22.808109833    -1.249238351
 C      -18.787793148    22.730232332    -0.439763154
 C      -18.795014792    23.302571039     0.835430651
 C      -17.641584787    23.961068726     1.281525599
 C      -16.510577568    24.044759728     0.473010164
 C      -19.956950369    23.245467768     1.716465993
 C      -21.120176899    22.646616455     1.409750108
 C      -22.282883842    22.588703447     2.289676556
 C      -22.294540671    23.164435409     3.563219735
 C      -23.428459440    23.084964718     4.370904369
 C      -24.581222585    22.434040968     3.918617299
 C      -24.572254920    21.857317460     2.642434186
 C      -23.435988463    21.931703443     1.840583423
Si      -26.083969168    22.327471219     4.986224778
 C      -26.171125216    23.811165296     6.120304860
 C      -27.621540972    22.287417162     3.923491021
 C      -25.974367668    20.761647251     5.999988467
 C      -14.023401830    25.107274237    -1.470935252
 C      -15.515602211    23.627868867    -3.679119622
 C       -3.446420095    13.335549376     2.149174553
 C       -2.861340329    13.490181696    -0.850386635
 C       -0.603739351    -0.903667662    -1.521197963
 C       -0.632098811    -0.855688495     1.536207891
 H        1.049177241     2.579392896     1.104991061
 H        0.192697839     4.850730017     1.092645892
 H       -3.293386135     3.569286469    -1.082348703
 H       -2.471257258     1.281106535    -1.099287826
 H       -3.121825762     5.827986963    -0.530473945
 H       -0.599839135     6.715906585     1.031699896
 H       -0.431375932     8.978771880     1.578169358
 H       -1.257063214    11.267688965     1.584817421
 H       -4.786150765     9.951660205    -0.598550533
 H       -3.915116251     7.683490765    -0.593452990
 H       -6.096140359    11.904444489     0.977052031
 H       -5.675467315    13.605843792    -1.607132797
 H       -7.552024661    14.125808249    -2.846277235
 H       -9.982317794    14.032436900    -3.268026252
 H      -10.504900511    11.758989877     0.364671488
 H       -8.081349032    11.766055229     0.717370959
 H      -13.639040455    11.913503641    -1.485762390
 H      -12.706810640    12.084776426     0.032037776
 H      -12.192064318    10.915960534    -1.224942668
 H       -9.336074754    15.366847904    -0.227765167
 H       -9.185201844    17.127253317    -0.386021391
 H      -10.018954594    16.176824068    -1.664151378
 H      -13.376742035    17.126084914     1.395074211
 H      -14.744090218    19.115029567     0.950692368
 H      -11.860211523    20.463697951    -1.944618944
 H      -10.516687570    18.462747002    -1.561785373
 H      -15.156905526    21.109193133    -0.130100940
 H      -13.039089796    22.084624401    -2.208576634
 H      -17.708548697    22.336413232    -2.234768599
 H      -19.670867894    22.213902033    -0.811410789
 H      -17.625843423    24.413434180     2.271339656
 H      -15.639954362    24.570909191     0.875310920
 H      -19.822688765    23.739358212     2.683437875
 H      -21.254339624    22.153185907     0.442525586
 H      -21.412414224    23.681566165     3.936841575
 H      -23.375900758    23.553086803     5.357873572
 H      -25.443535722    21.336920406     2.235317887
 H      -23.448414397    21.475601921     0.852340656
 H      -11.735802174    14.962134382    -2.323607841
 H      -13.303345090    14.147571194    -2.543899717
 H      -13.555561065    15.743327068    -0.744178777
 H      -13.644454140    14.141017725    -0.024515668
 H      -12.271829121    15.330355410     1.502486371
 H      -11.097761479    14.382872949     0.565396814
 H        2.268307253    -1.028383181    -0.058455864
 H        2.279679699     0.461257779     0.915319884
 H        2.269190856     0.560628624    -0.864441853
 H      -27.099394538    23.802019453     6.718924347
 H      -26.156466274    24.754909776     5.545394279
 H      -25.323393718    23.837669381     6.827085401
 H      -27.664604112    23.162466906     3.249842982
 H      -27.662285041    21.380575762     3.295253497
 H      -28.535832361    22.300591177     4.543146769
 H      -25.075471654    20.760642668     6.642513409
 H      -26.854553743    20.644270666     6.656190141
 H      -25.917214264    19.867316380     5.353824580
 H      -13.609296172    25.063103949    -0.447621279
 H      -13.172849290    25.234326935    -2.163870189
 H      -14.649316725    26.014775374    -1.541516146
 H      -16.008976523    22.690343044    -3.991592995
 H      -16.220165766    24.457084786    -3.870172431
 H      -14.641461623    23.774751961    -4.337800397
 H       -3.888896960    12.740465806     2.968653582
 H       -2.369053105    13.446868561     2.363187821
 H       -3.899306450    14.342972872     2.189504398
 H       -3.025165908    13.035193494    -1.844463926
 H       -3.213408296    14.535976848    -0.895976466
 H       -1.770192478    13.513157410    -0.677315841
 H       -0.312719900    -0.370952553    -2.444703491
 H       -0.176843390    -1.920931793    -1.576806556
 H       -1.702869428    -1.006916296    -1.527706748
 H       -0.285878158    -0.344439641     2.452510543
 H       -1.736565140    -0.867632250     1.564356366
 H       -0.285115940    -1.902699486     1.585790215

