139   

Si        0.000000000     0.000000000     0.000000000
 C        1.869319899     0.000000000     0.000000000
 C       -0.637760884     1.732779885     0.000000000
 C        0.091824289     2.762167692     0.604668805
 C       -0.391472183     4.070188830     0.603648273
 C       -1.617051801     4.378625889     0.006836556
 C       -2.348843176     3.345772424    -0.593558905
 C       -1.867190799     2.039003854    -0.596742362
 C       -2.162367613     5.732002103    -0.018509712
 C       -1.562081736     6.808857911     0.516337913
 C       -2.107734519     8.162154576     0.490795092
 C       -3.333807145     8.469158027    -0.106564363
 C       -3.818226378     9.776687725    -0.108284512
 C       -3.079803656    10.807183199     0.482549168
 C       -1.850975196    10.504161929     1.081712407
 C       -1.373955685     9.195777772     1.087670120
Si       -3.714702925    12.539182215     0.483854373
 C       -2.286960742    13.664215573     0.721327619
 C       -2.138545057    14.525494270     1.735869822
 C       -0.983531527    15.412232581     1.896875066
 C       -0.943414324    16.272438872     3.005464699
 C        0.125804328    17.129912268     3.203186526
 C        1.211184700    17.127817964     2.303265863
 C        1.172957338    16.274071538     1.191435298
 C        0.075528563    15.444050884     0.986858448
 N        2.271588218    18.031693386     2.566807875
 C        2.981363041    17.805380195     3.842433001
 C        3.163644709    18.327213810     1.435723923
 C        4.163882987    16.821403020     3.805148361
 C        3.779839920    15.363525751     3.490080903
 N        3.161659631    14.615731523     4.594931009
 C        3.816187533    14.589771153     5.829858408
 C        5.228607574    14.615881346     5.877625174
 C        5.888862336    14.590593186     7.094699623
 C        5.184410655    14.491801605     8.303194270
 C        3.788448026    14.435970736     8.251996381
 C        3.107666819    14.476466661     7.043280561
 C        1.693956612    14.616399260     4.595387075
 C        5.932310815    14.469218186     9.561002175
 C        5.364651049    14.377760851    10.771022574
Si        6.261183261    14.346238505    12.367517463
 C        5.863118468    12.759668625    13.222000631
 C        5.440083315    11.647672402    12.483572248
 C        5.138821354    10.448783667    13.124943682
 C        5.259964610    10.329397441    14.515651462
 C        5.687023395    11.440350393    15.248905564
 C        5.986578079    12.643196112    14.610324249
 C        4.932454001     9.052245211    15.141108018
 C        5.002441180     8.805162230    16.460191802
 C        4.674517294     7.527273810    17.083991950
 C        4.247651968     6.417293216    16.349759494
 C        3.944625549     5.214629031    16.987097639
 C        4.053147739     5.097741628    18.376985871
 C        4.479656840     6.209016409    19.115105286
 C        4.789276889     7.406630914    18.475168804
Si        3.652429444     3.506296025    19.222919338
 C        2.362570794     2.568034145    18.247844679
 C        5.218010793     2.492720817    19.338530177
 C        2.987054946     3.842699123    20.937427621
 C        8.110273029    14.442526191    12.126392499
 C        5.674383429    15.796020153    13.390409283
 C       -4.502341021    12.943768326    -1.160431741
 C       -4.969846880    12.713654723     1.854175054
 C       -0.603738950    -0.903690732    -1.521234324
 C       -0.631394222    -0.856072525     1.536252867
 H        1.056025545     2.583053866     1.088623462
 H        0.198245299     4.853500319     1.076969753
 H       -3.305826013     3.563921142    -1.064117561
 H       -2.482146368     1.276303023    -1.082334502
 H       -3.130534976     5.825318112    -0.519382777
 H       -0.594039987     6.715447590     1.017714104
 H       -3.923583645     7.684503367    -0.576947584
 H       -4.783997813     9.955439563    -0.588667265
 H       -1.232721608    11.271725922     1.559473176
 H       -0.417800807     8.977447202     1.560481318
 H       -1.525078946    13.579828296    -0.070958297
 H       -2.881935286    14.633097656     2.536798637
 H       -1.771569444    16.277442235     3.714978433
 H        0.127845712    17.821165875     4.044150220
 H        1.990780733    16.258151073     0.477009905
 H        0.058348055    14.798278289     0.107410581
 H        3.832571975    19.159222805     1.718180122
 H        2.557040577    18.674553003     0.579864514
 H        3.782460524    17.478214035     1.106344038
 H        1.311168328    14.584258519     3.558085867
 H        1.253570772    15.497493348     5.090452048
 H        1.328387212    13.700731813     5.096076973
 H        5.804631270    14.652923151     4.958233657
 H        6.978573033    14.631911529     7.108493894
 H        3.215178246    14.357549300     9.177640793
 H        2.023429350    14.434505861     7.050507197
 H        7.019243916    14.533175620     9.418914704
 H        4.269893741    14.315679782    10.881447509
 H        5.328856604    11.683173839    11.394318651
 H        4.807275168     9.595881692    12.535338537
 H        5.789187370    11.373965406    16.330388804
 H        6.313625863    13.477792992    15.236274966
 H        4.612448585     8.271352090    14.444656789
 H        5.322577905     9.585532398    17.156868344
 H        4.149481714     6.483306801    15.267522073
 H        3.618343949     4.381517063    16.358358153
 H        4.582749754     6.177387650    20.203226388
 H        5.121335419     8.258226603    19.066295845
 H        3.352558783    18.805307615     4.174673889
 H        2.250317988    17.476917885     4.614730667
 H        4.915964409    17.161630490     3.068897831
 H        4.681043996    16.864949450     4.787657520
 H        3.097713641    15.330729711     2.609753894
 H        4.694069601    14.801037918     3.180171919
 H        2.267932924    -1.028735576    -0.054925775
 H        2.279909357     0.464147078     0.913776198
 H        2.269327654     0.557512840    -0.866330848
 H        2.067249987     1.638974378    18.767146340
 H        2.731976090     2.282925475    17.247253010
 H        1.449100501     3.173771763    18.106469475
 H        5.634006985     2.280622731    18.337103742
 H        5.998974867     3.022807467    19.912891682
 H        5.035420373     1.524570233    19.836809559
 H        2.103237028     4.505111789    20.900038976
 H        2.679041930     2.906774532    21.436620187
 H        3.740598697     4.327781348    21.582118426
 H        8.480791333    13.595580195    11.520371684
 H        8.402290397    15.376441256    11.614462569
 H        8.643157539    14.411132178    13.093621276
 H        4.595992668    15.716937417    13.618140090
 H        6.214307213    15.862584255    14.350739690
 H        5.830547745    16.749383964    12.853805478
 H       -3.800914659    12.772036742    -1.997050039
 H       -5.398260344    12.325584788    -1.345375256
 H       -4.815206964    14.003087620    -1.202437761
 H       -4.524476778    12.485076205     2.839705106
 H       -5.380507736    13.738015154     1.898881846
 H       -5.818612245    12.020661375     1.710689649
 H       -0.312595081    -0.371048349    -2.444702449
 H       -0.176862409    -1.920976622    -1.576710763
 H       -1.702850549    -1.006854077    -1.527829748
 H       -0.285495348    -0.344511253     2.452552855
 H       -1.735850741    -0.868780302     1.564436369
 H       -0.283639066    -1.902823067     1.585943613

