139   

Si        0.000000000     0.000000000     0.000000000
 C        1.869235981     0.000000000     0.000000000
 C       -0.652751934     1.726720277     0.000000000
 C        0.158884695     2.810445677    -0.349221868
 C       -0.349824422     4.109257121    -0.344155170
 C       -1.680435068     4.353855807     0.005344521
 C       -2.493616683     3.266125596     0.351287493
 C       -1.988531378     1.968715400     0.347480272
 C       -2.256515467     5.694455036     0.024971020
 C       -1.588836146     6.819210866    -0.283453929
 C       -2.166814873     8.159131074    -0.263219174
 C       -1.355637699     9.248569765    -0.608382067
 C       -1.863526381    10.545217553    -0.603316185
 C       -3.199927111    10.781700868    -0.258232755
 C       -4.011770309     9.696311614     0.086903275
 C       -3.498277490     8.399823174     0.087230247
Si       -3.878863340    12.498064444    -0.249687665
 C       -5.705294550    12.391671588    -0.332257261
 C       -6.556995946    12.868680254     0.585154417
 C       -8.013478331    12.765172399     0.485428800
 C       -8.805588509    13.303308769     1.510191489
 C      -10.187591707    13.231250742     1.463044910
 C      -10.832456787    12.560920235     0.399006881
 C      -10.037471476    12.016497433    -0.628993671
 C       -8.655384354    12.141109343    -0.587992209
 N      -12.230075283    12.497253701     0.366393664
 C      -12.950399930    12.390272315     1.644798792
 C      -12.855112156    11.780471025    -0.752030153
 C      -12.460678379    11.283924788     2.597910186
 C      -12.890434712     9.859791022     2.204540997
 N      -14.338436857     9.573677221     2.253191278
 C      -15.047178966     9.863339532     1.060423347
 C      -14.683398026     9.142348523    -0.095502068
 C      -15.335130827     9.375543233    -1.294798239
 C      -16.385639954    10.302864786    -1.377169733
 C      -16.761408550    10.992202930    -0.221948198
 C      -16.113985680    10.770996689     0.989198208
 C      -14.984196372     9.988057411     3.507424195
 C      -17.040556434    10.510773164    -2.671013112
 C      -18.050829251    11.366639897    -2.870840101
Si      -18.896470427    11.656100786    -4.470978240
 C      -18.688102141    13.434712610    -4.913334468
 C      -17.625651684    14.175980515    -4.381657299
 C      -17.467233360    15.518884978    -4.714846306
 C      -18.359160493    16.150220544    -5.591662644
 C      -19.415583424    15.405283402    -6.123994365
 C      -19.579527530    14.061460694    -5.790103973
 C      -18.151638679    17.559224289    -5.910469918
 C      -18.933891195    18.280316567    -6.731387221
 C      -18.727530906    19.689176872    -7.051006322
 C      -17.672264096    20.436391255    -6.520294091
 C      -17.513013038    21.781041875    -6.853260290
 C      -18.412637087    22.411891339    -7.719422736
 C      -19.471322629    21.665563130    -8.251641089
 C      -19.623702181    20.320643733    -7.923351160
Si      -18.201072120    24.192587991    -8.159874492
 C      -17.423722457    25.116230933    -6.732357217
 C      -17.092776208    24.297155856    -9.660578525
 C      -19.861573553    24.960488230    -8.544849812
 C      -18.169874045    10.612737718    -5.837427564
 C      -20.705970524    11.249699562    -4.249536986
 C       -3.303685656    13.358205272     1.304518511
 C       -3.283168774    13.430991080    -1.754979263
 C       -0.627462359    -0.866147482    -1.532285013
 C       -0.604544741    -0.890603066     1.528814186
 H        1.207459940     2.682359654    -0.631638957
 H        0.303757931     4.935679305    -0.617957243
 H       -3.533345078     3.434407381     0.626149127
 H       -2.670860115     1.160765657     0.625825373
 H       -3.309845590     5.734899985     0.318176669
 H       -0.535710137     6.779480793    -0.576828198
 H       -0.315958952     9.082404609    -0.883681610
 H       -1.184034887    11.355764102    -0.880201187
 H       -5.063256970     9.823816599     0.366123778
 H       -4.149221962     7.571850737     0.362181459
 H       -6.073079297    11.886350763    -1.240079685
 H       -6.220953579    13.379847981     1.497049342
 H       -8.328011785    13.802600823     2.353969461
 H      -10.774922280    13.698226369     2.247837572
 H      -10.492283968    11.496427163    -1.465726501
 H       -8.063952274    11.725203456    -1.405701940
 H      -13.956279132    11.865572421    -0.690861818
 H      -12.601279884    10.708323733    -0.787392628
 H      -12.553014242    12.254580449    -1.704112661
 H      -14.420542769     9.561819368     4.355978603
 H      -16.002400159     9.560285212     3.546705452
 H      -15.055077079    11.077880361     3.647464751
 H      -13.895501300     8.393799596    -0.034593230
 H      -15.037501366     8.816623853    -2.182668792
 H      -17.578263189    11.714824384    -0.259870811
 H      -16.434681558    11.319060049     1.870190770
 H      -16.619808061     9.890798282    -3.473667820
 H      -18.455162294    11.973925042    -2.044347760
 H      -16.896620009    13.734301653    -3.693880333
 H      -16.638057422    16.081252464    -4.288636156
 H      -20.122630426    15.871830827    -6.807545088
 H      -20.425431398    13.531253053    -6.235941036
 H      -17.285325476    18.015774836    -5.422439768
 H      -19.799956281    17.823359618    -7.219342634
 H      -16.961338009    19.970691231    -5.839895812
 H      -16.666765811    22.311935641    -6.408129078
 H      -20.205417003    22.104706498    -8.932805409
 H      -20.451744949    19.757058156    -8.349312604
 H      -12.862880862    13.380156491     2.155516861
 H      -14.036452807    12.258085135     1.434202549
 H      -11.351529671    11.306927014     2.656580572
 H      -12.807422414    11.514472143     3.622669384
 H      -12.503748631     9.623470123     1.188083652
 H      -12.404251444     9.130116333     2.896783971
 H        2.267412079    -1.028221901     0.067629649
 H        2.270921541     0.567529266     0.858800153
 H        2.277977996     0.451123200    -0.921301408
 H      -17.346693459    26.196324454    -6.950325090
 H      -16.405245550    24.750648282    -6.513370861
 H      -18.023510220    25.005575594    -5.810785506
 H      -16.102955242    23.848289521    -9.461454868
 H      -17.529780885    23.759511933   -10.521233323
 H      -16.929255406    25.344674220    -9.968813474
 H      -20.565485785    24.834880524    -7.702285502
 H      -19.765040615    26.043846097    -8.737620441
 H      -20.325708804    24.507107787    -9.438021600
 H      -17.096564385    10.832083565    -5.984617457
 H      -18.267091653     9.534519333    -5.618449486
 H      -18.677160296    10.804092473    -6.800415428
 H      -21.180193076    11.913597982    -3.504056850
 H      -21.265796396    11.357289226    -5.195030280
 H      -20.840757356    10.209674688    -3.900221864
 H       -3.644466286    12.822776040     2.209422654
 H       -2.201156886    13.409956974     1.350134335
 H       -3.688961102    14.391866317     1.359258563
 H       -3.542142727    12.897122618    -2.687233943
 H       -3.744551161    14.433932299    -1.808984983
 H       -2.188137634    13.568338544    -1.742416837
 H       -0.281649830    -0.357729015    -2.450502786
 H       -0.275598553    -1.911731899    -1.576851569
 H       -1.731607742    -0.882923381    -1.562141091
 H       -0.294444537    -0.360428975     2.447711438
 H       -1.705472297    -0.969947621     1.547844749
 H       -0.197186184    -1.915650125     1.582621102

