139   

Si        0.000000000     0.000000000     0.000000000
 C        1.868592862     0.000000000     0.000000000
 C       -0.586476378     1.749965915     0.000000000
 C       -0.315911673     2.568693187    -1.103042694
 C       -0.748359196     3.893847051    -1.126642078
 C       -1.470809271     4.428567568    -0.055918261
 C       -1.741804930     3.607223246     1.046147279
 C       -1.301918211     2.285437907     1.077006139
 C       -1.943176798     5.808346775    -0.036934266
 C       -1.743239899     6.701109827    -1.021355683
 C       -2.220192172     8.080087609    -0.992803311
 C       -1.946816875     8.914650349    -2.083523657
 C       -2.384237085    10.237862872    -2.096036198
 C       -3.097393306    10.757986111    -1.010933514
 C       -3.374887412     9.924813089     0.079397253
 C       -2.947252157     8.598833062     0.082991949
Si       -3.696206484    12.503277858    -0.983402042
 C       -5.400363389    12.520696306    -0.314797457
 C       -5.791710911    13.176443490     0.785848736
 C       -7.160983957    13.176701418     1.303102604
 C       -7.447546712    13.903011205     2.466734352
 C       -8.726784228    13.937229810     2.999352196
 C       -9.797426767    13.309335586     2.326522367
 C       -9.513383141    12.597269738     1.142173757
 C       -8.214840611    12.521346693     0.659237767
 N      -11.091380178    13.340073967     2.858666991
 C      -11.466602653    14.403128177     3.807090939
 C      -12.183398844    12.873302189     1.994050555
 C      -11.082341475    15.840764523     3.409319411
 C      -12.253546817    16.749108011     2.996050284
 N      -12.726910285    16.627246132     1.601202607
 C      -11.745267951    16.404889650     0.616738565
 C      -10.562933182    17.176550667     0.662045898
 C       -9.571547317    16.991354836    -0.285566975
 C       -9.733256103    16.070682609    -1.331553402
 C      -10.918142903    15.334629861    -1.393393209
 C      -11.921376235    15.502235707    -0.445399758
 C      -13.997949685    15.902110998     1.468984206
 C       -8.651109810    15.916641191    -2.305178335
 C       -8.693235330    15.070988566    -3.342546049
Si       -7.361726271    14.850551142    -4.579539905
 C       -6.831026937    13.085664312    -4.495476964
 C       -7.139496347    12.313658705    -3.370402237
 C       -6.742814272    10.978976817    -3.297459002
 C       -5.994181166    10.400838959    -4.325907488
 C       -5.676746620    11.179945894    -5.446950749
 C       -6.097753253    12.504388254    -5.536873943
 C       -5.558518914     9.009428077    -4.290515252
 C       -5.797520129     8.159066630    -3.277752727
 C       -5.359072175     6.767825648    -3.247933718
 C       -4.636419939     6.186378769    -4.293600892
 C       -4.235339886     4.853135560    -4.227577269
 C       -4.558088712     4.067437909    -3.115525994
 C       -5.278915223     4.648444708    -2.065338356
 C       -5.666917098     5.984927168    -2.128318558
Si       -4.020969180     2.303329377    -3.040491885
 C       -5.268659944     1.281863530    -3.991653549
 C       -2.342321477     2.112751784    -3.840021620
 C       -3.973953674     1.710820887    -1.273106105
 C       -8.051193330    15.235984978    -6.272053442
 C       -5.899536908    15.953233832    -4.216189541
 C       -2.535971944    13.497477728     0.095660756
 C       -3.693353292    13.215505511    -2.706014623
 C       -0.638335463    -0.851367765    -1.537798420
 C       -0.626434913    -0.909058874     1.508018352
 H        0.242711473     2.205467309    -1.970466703
 H       -0.521364508     4.513901135    -1.992663889
 H       -2.300393843     4.004408739     1.891455779
 H       -1.538501812     1.695055704     1.965858925
 H       -2.496569218     6.088914494     0.863964159
 H       -1.200486596     6.421587072    -1.928759928
 H       -1.395600306     8.525755453    -2.937122643
 H       -2.155347946    10.837943967    -2.980537358
 H       -3.939510490    10.276018142     0.949111763
 H       -3.184976930     7.966633445     0.936199704
 H       -6.112400101    11.922718998    -0.904943789
 H       -5.103380070    13.778457132     1.393100226
 H       -6.646557552    14.433899461     2.982181735
 H       -8.894631877    14.453089689     3.938831481
 H      -10.303902473    12.101119170     0.589187415
 H       -8.023980486    11.950995787    -0.251826220
 H      -13.149508020    12.944322465     2.518756255
 H      -12.028809040    11.801794051     1.762943425
 H      -12.248769462    13.434034122     1.044673526
 H      -14.734799534    16.334072666     2.169040893
 H      -13.923119785    14.822077493     1.663335219
 H      -14.405176705    16.056067463     0.452685669
 H      -10.433556224    17.922538435     1.441764412
 H       -8.654590051    17.578670139    -0.220009799
 H      -11.068999731    14.612784162    -2.198068148
 H      -12.830869167    14.917985168    -0.534399332
 H       -7.787135197    16.561701298    -2.097092234
 H       -9.573935230    14.434161036    -3.523400746
 H       -7.706026241    12.723438883    -2.525625628
 H       -7.013945269    10.387225757    -2.424012928
 H       -5.099524006    10.745623229    -6.260202391
 H       -5.833759912    13.059415837    -6.440318854
 H       -5.001248401     8.681983428    -5.172342230
 H       -6.343419557     8.487333093    -2.387876389
 H       -4.376382924     6.775637158    -5.170658222
 H       -3.665914898     4.456705082    -5.072175805
 H       -5.547135307     4.086732085    -1.166496588
 H       -6.212815888     6.423860037    -1.295223180
 H      -12.558696106    14.339001733     4.005545744
 H      -10.969979443    14.145741798     4.776020296
 H      -10.557454739    16.320630301     4.259398733
 H      -10.321443294    15.811799370     2.598555323
 H      -13.110380243    16.603964201     3.688705463
 H      -11.939414332    17.816160022     3.120949566
 H        2.271694550    -1.027785451    -0.000100900
 H        2.268495494     0.514673828     0.892611740
 H        2.273929743     0.518255241    -0.887069094
 H       -4.997331087     0.212241243    -3.987395572
 H       -5.336462864     1.607433371    -5.044412705
 H       -6.278178018     1.373546931    -3.553017378
 H       -2.390359995     2.267524433    -4.931178990
 H       -1.623579416     2.844361254    -3.428306391
 H       -1.930665324     1.103564429    -3.661941662
 H       -4.964324933     1.773442583    -0.791080110
 H       -3.639696195     0.660794887    -1.208622192
 H       -3.269031642     2.318453510    -0.670730671
 H       -8.877326209    14.551457046    -6.536055727
 H       -8.448786273    16.266012129    -6.315693513
 H       -7.279986265    15.143454282    -7.056143839
 H       -5.527664636    15.799345219    -3.185685870
 H       -5.061209756    15.751865447    -4.905999430
 H       -6.166993347    17.019849342    -4.319212590
 H       -2.498156682    13.096650221     1.124014496
 H       -1.506099456    13.475764763    -0.302996902
 H       -2.848723697    14.554276468     0.155334900
 H       -4.342491866    12.625055721    -3.383633832
 H       -4.070163324    14.253513843    -2.711302237
 H       -2.680000754    13.226987500    -3.141581405
 H       -0.279037318    -0.353875856    -2.455791850
 H       -0.310226429    -1.904727002    -1.578604002
 H       -1.743179831    -0.844931112    -1.569129895
 H       -0.251708585    -0.452967974     2.441589354
 H       -1.730094601    -0.907421613     1.552318151
 H       -0.297889027    -1.963729357     1.502421212

