139   

Si        0.000000000     0.000000000     0.000000000
 C        1.868312689     0.000000000     0.000000000
 C       -0.642200020     1.729983178     0.000000000
 C        0.204962049     2.818273727    -0.229231082
 C       -0.296729627     4.119509136    -0.225814050
 C       -1.655683560     4.360586604    -0.007316714
 C       -2.503662452     3.268914724     0.220367076
 C       -2.003757681     1.969502381     0.229026302
 C       -2.222340532     5.705422412     0.004501726
 C       -1.511603443     6.829081580    -0.189409841
 C       -2.066372173     8.177777096    -0.179883173
 C       -3.421581272     8.440804012     0.036571049
 C       -3.903183319     9.750181126     0.036012091
 C       -3.033709200    10.827051349    -0.159308898
 C       -1.671873145    10.566418235    -0.365377870
 C       -1.195979222     9.258828798    -0.375006321
Si       -3.625234429    12.572354298    -0.167816435
 C       -3.334314052    13.434849765     1.416528036
 C       -2.762385502    12.944138924     2.523676114
 C       -2.579375877    13.732270749     3.745825010
 C       -1.969761341    13.140825624     4.863118698
 C       -1.779786039    13.853806936     6.035233597
 C       -2.192290757    15.201699341     6.129558560
 C       -2.776063096    15.803653726     5.001185286
 C       -2.938498006    15.079844143     3.825750319
 N       -1.983298478    15.895875832     7.336819667
 C       -2.326012950    15.177450596     8.582170027
 C       -2.343043513    17.321305188     7.364856191
 C       -3.660394844    14.412454368     8.572446950
 C       -4.913090091    15.288290939     8.778433290
 N       -5.944954581    15.237782927     7.711713385
 C       -6.065624255    13.941138898     7.115277157
 C       -6.798493608    12.979294907     7.827818738
 C       -6.952227594    11.703454566     7.303785639
 C       -6.371750212    11.353924688     6.075900807
 C       -5.654999560    12.322517778     5.367533431
 C       -5.518497418    13.610637709     5.869337223
 C       -5.833989654    16.334340740     6.733661235
 C       -6.561643227     9.994351747     5.562878917
 C       -6.050303887     9.561131202     4.403468097
Si       -6.260153254     7.874517016     3.722242721
 C       -4.569010728     7.156119523     3.547856355
 C       -3.470002794     7.974186307     3.258215511
 C       -2.197304770     7.424256743     3.128252472
 C       -1.989800193     6.049675441     3.299403840
 C       -3.088149727     5.236976207     3.593140479
 C       -4.365198207     5.782562477     3.713600292
 C       -0.639829221     5.515829620     3.154144289
 C       -0.322132416     4.216765863     3.285148989
 C        1.022239835     3.670195486     3.142594846
 C        2.133240193     4.466503964     2.849100096
 C        3.400078314     3.899707406     2.722052394
 C        3.584430707     2.522125052     2.891744811
 C        2.474762432     1.724114626     3.191474648
 C        1.209726021     2.293526759     3.318189289
Si        5.275227207     1.803248368     2.716715669
 C        5.924448694     2.223625609     1.014259311
 C        6.383405851     2.534780248     4.030486662
 C        5.220908041    -0.055915884     2.907233957
 C       -7.324813017     6.813411982     4.828258570
 C       -7.032831315     8.003637315     2.025256167
 C       -2.750981399    13.516447910    -1.523930132
 C       -5.470825644    12.599909689    -0.479290272
 C       -0.636236762    -0.875332747    -1.523135621
 C       -0.601716672    -0.872731343     1.541766904
 H        1.277388001     2.693706149    -0.404841621
 H        0.386236685     4.950006150    -0.395258849
 H       -3.564034299     3.437291318     0.398014195
 H       -2.711183765     1.158073905     0.417978869
 H       -3.298488502     5.750432442     0.197290885
 H       -0.434545737     6.779146233    -0.374967161
 H       -4.115133443     7.618281180     0.207413947
 H       -4.974811363     9.894349620     0.199884796
 H       -0.943768480    11.367658396    -0.521168298
 H       -0.135938015     9.075876702    -0.539115598
 H       -3.698776145    14.476951588     1.388343919
 H       -2.388899962    11.914980159     2.598743586
 H       -1.648911109    12.098310634     4.814382146
 H       -1.297653738    13.376772789     6.884938822
 H       -3.085573871    16.843612928     5.022086940
 H       -3.376453020    15.579890964     2.960061496
 H       -1.950098092    17.775584162     8.291428942
 H       -3.426388398    17.512702711     7.315883218
 H       -1.847982571    17.842572176     6.525384474
 H       -5.981884436    17.291116088     7.261927893
 H       -6.650015020    16.241538721     5.994667663
 H       -4.878167035    16.368714804     6.189753641
 H       -7.245363330    13.246739053     8.783167814
 H       -7.528811873    10.964840829     7.859060711
 H       -5.194685196    12.079235065     4.407404500
 H       -4.955796205    14.348621632     5.298341459
 H       -7.164077021     9.360296268     6.224866496
 H       -5.449255328    10.230299301     3.763752253
 H       -3.567258243     9.055259394     3.115909513
 H       -1.356587372     8.072970500     2.886559417
 H       -2.953641049     4.165266251     3.727705989
 H       -5.183849692     5.095762351     3.942763547
 H        0.126635339     6.260541967     2.923254842
 H       -1.094893115     3.474070549     3.506412252
 H        2.013779506     5.539911946     2.713915191
 H        4.230164358     4.571864254     2.488695826
 H        2.559357925     0.644271745     3.340888507
 H        0.356772714     1.659459379     3.554320776
 H       -1.493939256    14.454445924     8.769475704
 H       -2.299481585    15.893391019     9.432029268
 H       -3.739839203    13.830065655     7.629930929
 H       -3.629700192    13.636110252     9.362068566
 H       -5.437840228    14.958837442     9.707649524
 H       -4.625376114    16.345989507     8.949583103
 H        2.273489878    -1.019282890     0.120570842
 H        2.260693460     0.617208861     0.830800596
 H        2.277201731     0.410800383    -0.939654803
 H        6.927554560     1.792855520     0.849859506
 H        6.002702411     3.315210268     0.867911481
 H        5.259171770     1.831017452     0.224076647
 H        6.445427782     3.633957015     3.942845181
 H        6.006552851     2.306598068     5.044140970
 H        7.410327230     2.135581520     3.959187589
 H        4.559272178    -0.520883987     2.154536331
 H        6.225414197    -0.497861558     2.781868573
 H        4.854276639    -0.350781777     3.906458720
 H       -6.851124604     6.660865694     5.815337452
 H       -8.311924719     7.278928759     5.000875176
 H       -7.504973696     5.816743671     4.389324141
 H       -6.414296305     8.613355790     1.342294926
 H       -7.153489005     7.007144843     1.564771338
 H       -8.032138619     8.471287863     2.076835156
 H       -1.669862578    13.614499504    -1.320820656
 H       -2.862022283    13.006462220    -2.497757356
 H       -3.159614398    14.536237940    -1.633321604
 H       -6.030296061    12.137895634     0.354543148
 H       -5.843475366    13.633108690    -0.591990571
 H       -5.727553056    12.052424704    -1.403286512
 H       -0.295611582    -0.371330217    -2.445766795
 H       -0.283975566    -1.920550745    -1.564780786
 H       -1.740165633    -0.892848946    -1.547414540
 H       -0.243656186    -0.362183600     2.453906988
 H       -1.703976625    -0.902080437     1.588413152
 H       -0.239228693    -1.914652651     1.578647550

