139   

Si        0.000000000     0.000000000     0.000000000
 C        1.869288861     0.000000000     0.000000000
 C       -0.647005654     1.729260477     0.000000000
 C        0.141490170     2.796043531    -0.442924457
 C       -0.358269282     4.098184807    -0.438239816
 C       -1.657902580     4.362967922     0.001660590
 C       -2.448519771     3.292329390     0.440177761
 C       -1.951605414     1.991615827     0.438416870
 C       -2.223517172     5.708023403     0.024594065
 C       -1.574272107     6.818136455    -0.365400941
 C       -2.141152953     8.162602208    -0.341922706
 C       -1.351755661     9.235077044    -0.778111752
 C       -1.850497145    10.535163043    -0.773518468
 C       -3.149072453    10.796641039    -0.317751758
 C       -3.937794668     9.727698487     0.119664898
 C       -3.440027206     8.425127648     0.102232059
Si       -3.805179920    12.521741490    -0.313812482
 C       -4.492110016    12.909290519    -1.966654791
 C       -4.503263786    12.054961143    -2.998728948
 C       -5.051528592    12.362212098    -4.320338493
 C       -5.001880899    11.377524825    -5.318312351
 C       -5.505949284    11.614905345    -6.586066322
 C       -6.042109864    12.878889443    -6.917365185
 C       -6.092001181    13.867772437    -5.916659673
 C       -5.622606856    13.596917696    -4.637155114
 N       -6.549554259    13.103777875    -8.207770967
 C       -5.904537338    12.394811929    -9.327090728
 C       -6.982240065    14.470928919    -8.531178568
 C       -4.391789811    12.636235726    -9.469529041
 C       -4.035456385    13.935646681   -10.211906024
 N       -4.075120149    13.847715196   -11.682411683
 C       -3.273848069    12.873186415   -12.298219285
 C       -2.040069758    12.508148553   -11.715545654
 C       -1.239413986    11.548350167   -12.312030961
 C       -1.603099373    10.950560628   -13.527359028
 C       -2.809719178    11.335191461   -14.117892898
 C       -3.633911054    12.283225542   -13.525220153
 C       -5.402625664    14.092309432   -12.264834035
 C       -0.719427689     9.941353665   -14.113649039
 C       -0.965118767     9.306272201   -15.267134795
Si        0.114249715     8.039342971   -16.032469564
 C       -0.848281852     6.472339272   -16.183802472
 C       -1.951201055     6.236732148   -15.356258612
 C       -2.680312542     5.053446461   -15.468512058
 C       -2.318863315     4.077901481   -16.401839123
 C       -1.210386261     4.314632959   -17.225859520
 C       -0.482114053     5.496876907   -17.119042088
 C       -3.051330612     2.825091414   -16.555176338
 C       -4.128076099     2.474510148   -15.831522561
 C       -4.859722621     1.221313791   -15.985827366
 C       -4.499342728     0.248205923   -16.922090853
 C       -5.227041294    -0.935740535   -17.035790044
 C       -6.329148383    -1.176779118   -16.208477881
 C       -6.692036283    -0.203333102   -15.269178927
 C       -5.967751793     0.981526632   -15.162677718
Si       -7.294132031    -2.743823770   -16.357346475
 C       -6.184029194    -4.127041673   -16.948595931
 C       -8.012467974    -3.213013425   -14.696361869
 C       -8.672843655    -2.469925364   -17.588388385
 C        0.617242654     8.654082366   -17.723695398
 C        1.631853863     7.704711777   -14.997718888
 C       -5.161437559    12.699517179     0.959571107
 C       -2.431493259    13.727905110     0.074645665
 C       -0.629565687    -0.861315299    -1.533877615
 C       -0.603892212    -0.895976549     1.525723999
 H        1.165277601     2.651987794    -0.799053124
 H        0.277657529     4.911144506    -0.784286153
 H       -3.463886965     3.476455881     0.786719620
 H       -2.615105294     1.197690772     0.792452220
 H       -3.252121288     5.764776850     0.393251316
 H       -0.545822483     6.761286378    -0.733924316
 H       -0.337603199     9.052392965    -1.128199935
 H       -1.190586552    11.330327177    -1.132556005
 H       -4.959301654     9.870790523     0.483830033
 H       -4.075714764     7.610061236     0.443326784
 H       -4.909419660    13.923105667    -2.057185270
 H       -4.092547060    11.036523759    -2.928915548
 H       -4.569885404    10.401357883    -5.090554600
 H       -5.483956751    10.818498675    -7.324783488
 H       -6.501977779    14.850194866    -6.124090833
 H       -5.688877929    14.375235104    -3.875622457
 H       -7.360015537    14.514977410    -9.565893866
 H       -6.187715937    15.226252813    -8.414383528
 H       -7.828639510    14.744446117    -7.872625062
 H       -5.935240121    14.865903703   -11.687662306
 H       -6.036674797    13.191674660   -12.313722520
 H       -5.276649131    14.491217411   -13.289517506
 H       -1.711378467    12.975058733   -10.791220231
 H       -0.301926433    11.265189660   -11.831558250
 H       -3.118032387    10.887017567   -15.064225801
 H       -4.561705899    12.549788891   -14.020159166
 H        0.177465511     9.749371353   -13.509723907
 H       -1.872662824     9.522263231   -15.853642162
 H       -2.279167734     6.963895381   -14.605638135
 H       -3.537984197     4.895230453   -14.817012025
 H       -0.912842002     3.567685684   -17.959270355
 H        0.371135931     5.627473446   -17.790004181
 H       -2.657422919     2.156880465   -17.326682412
 H       -4.522200967     3.142159490   -15.059535552
 H       -3.642876538     0.408788782   -17.574578229
 H       -4.897205826    -1.657686811   -17.787995829
 H       -7.543176049    -0.336420523   -14.595692824
 H       -6.266976419     1.726606479   -14.427607957
 H       -6.096459434    11.303480175    -9.185204737
 H       -6.432591676    12.661710342   -10.268262050
 H       -3.919797731    12.648716222    -8.465413534
 H       -3.932226203    11.770911965    -9.989897565
 H       -4.701556827    14.764822327    -9.887577842
 H       -3.005783961    14.259906210    -9.924673848
 H        2.267436887    -1.028750474     0.059470349
 H        2.270356349     0.560910850     0.863491671
 H        2.278847255     0.458687478    -0.917097098
 H       -6.729335072    -5.086713932   -16.989398220
 H       -5.321271875    -4.264122837   -16.271661814
 H       -5.787009677    -3.930410796   -17.959813291
 H       -7.223111956    -3.291227779   -13.926811399
 H       -8.749623578    -2.470556496   -14.343969658
 H       -8.525656726    -4.189900578   -14.744977357
 H       -8.276492131    -2.190540185   -18.581195243
 H       -9.284521166    -3.380119195   -17.716663073
 H       -9.346787491    -1.656905339   -17.263490013
 H       -0.259746112     8.777190684   -18.384598214
 H        1.120795401     9.635726616   -17.655632363
 H        1.313860554     7.956781877   -18.220391741
 H        1.359628032     7.344518126   -13.988775978
 H        2.269609185     6.930354246   -15.460583511
 H        2.246398097     8.614417696   -14.876348000
 H       -6.040865715    12.080469091     0.706597853
 H       -4.811067736    12.392586294     1.961375892
 H       -5.507627187    13.745695879     1.033958960
 H       -1.658476072    13.733097209    -0.714362568
 H       -2.816065060    14.759186952     0.165192071
 H       -1.934705369    13.472242335     1.027898335
 H       -0.283870056    -0.351909408    -2.451593879
 H       -0.279761536    -1.907560679    -1.580724766
 H       -1.733876690    -0.876009057    -1.563039569
 H       -0.304007842    -0.363314744     2.446540622
 H       -1.703931606    -0.987913736     1.538600611
 H       -0.185976087    -1.916799288     1.581754173

