139   

Si        0.000000000     0.000000000     0.000000000
 C        1.869640355     0.000000000     0.000000000
 C       -0.621126530     1.738618707     0.000000000
 C        0.036746466     2.720387536    -0.749747603
 C       -0.424511162     4.036053938    -0.756265236
 C       -1.557518844     4.399719090    -0.022575195
 C       -2.217743455     3.414518010     0.722957773
 C       -1.756884369     2.100003780     0.734413696
 C       -2.076311244     5.763665317     0.000371458
 C       -1.535465959     6.798067943    -0.665623891
 C       -2.052338825     8.162613518    -0.644237969
 C       -3.185295176     8.527876969     0.088996738
 C       -3.644956609     9.844110987     0.081163178
 C       -2.974585891    10.825928981    -0.656243971
 C       -1.839266648    10.464054484    -1.391212643
 C       -1.386728387     9.146801007    -1.386446711
Si       -3.580993951    12.569051286    -0.668302804
 C       -2.211927803    13.653687656    -1.219790492
 C       -2.233331861    14.446605472    -2.299329099
 C       -1.118829677    15.301815445    -2.710988907
 C       -1.256423979    16.090631494    -3.861893912
 C       -0.231450245    16.916731835    -4.293678317
 C        0.964574959    17.021294133    -3.550325344
 C        1.102983155    16.228938114    -2.393611378
 C        0.084309038    15.370514144    -2.002749327
 N        2.000623990    17.860410959    -3.992711085
 C        1.622718439    19.062518457    -4.755840576
 C        3.111039342    18.102241835    -3.055330522
 C        0.779251975    20.057238778    -3.938790013
 C        0.754334736    21.466927972    -4.551879163
 N        2.068120344    22.137091373    -4.683544181
 C        2.989591230    21.886423421    -3.642714269
 C        2.565514314    22.109565577    -2.314983040
 C        3.430892261    21.878802906    -1.259625144
 C        4.750002394    21.453492602    -1.483666721
 C        5.172307770    21.259262318    -2.800183197
 C        4.313587371    21.479335814    -3.871844300
 C        2.601595555    22.115606855    -6.055055431
 C        5.622819677    21.224332290    -0.329881673
 C        6.895848361    20.818856439    -0.422092117
Si        8.021046869    20.520553948     0.993586139
 C        9.473513189    21.645730052     0.831796184
 C        9.393814612    22.800204153     0.043708000
 C       10.492100725    23.648222731    -0.076804132
 C       11.691108832    23.368406518     0.591713420
 C       11.765008130    22.217128534     1.381419411
 C       10.668701541    21.364208336     1.501992117
 C       12.813705414    24.287503540     0.433820597
 C       14.015346323    24.134193508     1.015615479
 C       15.137995622    25.053224389     0.857787409
 C       15.064952856    26.204328323     0.068538888
 C       16.163048444    27.055165544    -0.054082816
 C       17.363658013    26.768335534     0.604269658
 C       17.439531184    25.614682747     1.394915712
 C       16.339086066    24.770675317     1.521651328
Si       18.819384654    27.892875733     0.443925955
 C       18.768823644    28.777628576    -1.202408248
 C       18.754527201    29.139882720     1.833947238
 C       20.403239602    26.905490810     0.550834103
 C        7.181346670    20.862051046     2.625387421
 C        8.575194143    18.737862053     0.920190429
 C       -5.052854704    12.677270263    -1.811857687
 C       -4.072359227    13.088604690     1.057963103
 C       -0.634509727    -0.850429349    -1.538089554
 C       -0.606815460    -0.908374897     1.517081819
 H        0.925910720     2.497214485    -1.346059645
 H        0.108453529     4.782217531    -1.343053757
 H       -3.101917197     3.675751777     1.301589572
 H       -2.311917938     1.375725606     1.336793757
 H       -2.969227487     5.902874176     0.616667118
 H       -0.642647617     6.657175260    -1.282349332
 H       -3.720435598     7.782152650     0.673821694
 H       -4.537207700    10.069746994     0.671453812
 H       -1.277565096    11.191525508    -1.987148314
 H       -0.504041009     8.882834556    -1.966307083
 H       -1.326202968    13.609030189    -0.565321058
 H       -3.101073043    14.515154575    -2.968511230
 H       -2.181527025    16.047200162    -4.437505340
 H       -0.359703411    17.486131371    -5.209138885
 H        2.009428155    16.270668043    -1.797510712
 H        0.226442290    14.754052585    -1.113353898
 H        3.829031717    18.821680911    -3.488305081
 H        3.659542136    17.157097742    -2.892326281
 H        2.785995096    18.504083243    -2.081303553
 H        1.834277427    22.509265706    -6.744998882
 H        2.912000094    21.120612584    -6.410062214
 H        3.465484674    22.802113114    -6.120549732
 H        1.556436748    22.468717750    -2.126529179
 H        3.083949538    22.043976498    -0.238697594
 H        6.194402137    20.933596850    -3.001867448
 H        4.679183859    21.317342779    -4.880954073
 H        5.129882501    21.421174850     0.631298095
 H        7.363460065    20.628953964    -1.402028729
 H        8.481584121    23.070581780    -0.498461136
 H       10.413565336    24.539428907    -0.697091429
 H       12.684986748    21.976870476     1.911321630
 H       10.786937968    20.478464973     2.132140759
 H       12.613652192    25.146582197    -0.213445453
 H       14.215586315    23.275055736     1.662693661
 H       14.144089692    26.447718944    -0.458497548
 H       16.043981533    27.941194763    -0.683974445
 H       18.351157898    25.338924509     1.932172696
 H       16.417016130    23.879871128     2.142411033
 H        2.562804664    19.544757251    -5.110407699
 H        1.080321207    18.749269394    -5.675329425
 H       -0.257369595    19.679292361    -3.839997513
 H        1.164407602    20.103534313    -2.899493869
 H        0.257597879    21.438430457    -5.545991801
 H        0.123079202    22.130539106    -3.911774558
 H        2.269229122    -1.027668809     0.063237784
 H        2.268554458     0.565678785     0.861676749
 H        2.279063317     0.458489203    -0.917028479
 H       19.669063821    29.400914995    -1.348003949
 H       17.890983034    29.442179159    -1.283624968
 H       18.723367205    28.059194966    -2.040839070
 H       17.824735859    29.735741481     1.796092886
 H       18.787149891    28.644387766     2.820900780
 H       19.604441410    29.842971397     1.784364284
 H       20.429812888    26.109592709    -0.215482935
 H       21.286654253    27.549143939     0.391567187
 H       20.520278525    26.422980782     1.536851882
 H        6.839956437    21.911592123     2.689964787
 H        6.301101169    20.211255364     2.771186455
 H        7.868094151    20.689032361     3.473669507
 H        9.137340211    18.528992196    -0.008044837
 H        9.229734115    18.479795593     1.771005454
 H        7.710133914    18.050598234     0.945648828
 H       -4.783125917    12.379904060    -2.841847105
 H       -5.868573930    12.009985155    -1.480776014
 H       -5.457413557    13.704103558    -1.852659518
 H       -3.234640013    12.966074867     1.768224744
 H       -4.375374162    14.150999034     1.082644143
 H       -4.920052574    12.491654211     1.436697555
 H       -0.289616349    -0.336732746    -2.453422708
 H       -0.288630642    -1.897571026    -1.591329156
 H       -1.739149236    -0.861379923    -1.564124462
 H       -0.309347741    -0.384226871     2.443345137
 H       -1.706751470    -1.003585055     1.524299486
 H       -0.187630441    -1.929227806     1.565087946

