139   

Si        0.000000000     0.000000000     0.000000000
 C        1.868960782     0.000000000     0.000000000
 C       -0.663868043     1.722356272     0.000000000
 C        0.178976662     2.837053023     0.024480595
 C       -0.350890410     4.127820963     0.023858214
 C       -1.732556203     4.332276707    -0.001458301
 C       -2.576426826     3.213234407    -0.025626976
 C       -2.050870750     1.924466567    -0.024472991
 C       -2.333866177     5.661378451    -0.003181671
 C       -1.646323069     6.815955848     0.018832244
 C       -2.259861534     8.139903307     0.016832616
 C       -1.433293647     9.271210616     0.041373690
 C       -1.978520132    10.553203732     0.040387076
 C       -3.365987045    10.732060799    -0.001986786
 C       -4.192757911     9.603385314    -0.031428439
 C       -3.645107792     8.322050658    -0.018811466
Si       -4.114834908    12.421015321    -0.004270272
 C       -5.883708752    12.191021007    -0.422066252
 C       -6.919140580    12.540902060     0.350591775
 C       -8.320880123    12.337404951    -0.025079760
 C       -9.322430179    12.745465662     0.868478734
 C      -10.661889417    12.574094378     0.557963526
 C      -11.030611446    11.991086312    -0.667652997
 C      -10.038672440    11.591072230    -1.569115334
 C       -8.697268458    11.772923439    -1.246462194
 N      -12.434103741    11.856554327    -0.897194562
 C      -13.057502404    10.760349346    -0.126142064
 C      -12.844268864    11.952483812    -2.305034472
 C      -13.465800534     9.496724716    -0.902019665
 C      -12.300562904     8.724817529    -1.547649818
 N      -11.718352063     7.587612471    -0.810291842
 C      -10.618852807     7.954726442     0.041952691
 C       -9.342647234     7.682060426    -0.470677508
 C       -8.216932984     7.999401711     0.276101467
 C       -8.340697864     8.610296148     1.532021781
 C       -9.618626924     8.873737086     2.034511259
 C      -10.754411463     8.537509789     1.304819720
 C      -12.695282091     6.718933191    -0.131940939
 C       -7.119674507     8.924958353     2.280807776
 C       -7.116290985     9.506593692     3.486187809
Si       -5.622720833     9.921447985     4.464178136
 C       -5.654933759    11.750205521     4.720259578
 C       -6.595210919    12.537724461     4.047207917
 C       -6.627934284    13.918588674     4.233468118
 C       -5.714204636    14.544021494     5.086226839
 C       -4.769532487    13.754228263     5.755405416
 C       -4.739118612    12.373256960     5.576452036
 C       -5.713713726    15.985946744     5.309406328
 C       -6.567374486    16.845223987     4.727187878
 C       -6.573875572    18.287872255     4.944623023
 C       -5.671283892    18.926272391     5.799204549
 C       -5.714103842    20.309036204     5.976969579
 C       -6.656911752    21.085367540     5.295778237
 C       -7.562263733    20.447812052     4.437370830
 C       -7.521970844    19.066484135     4.267358558
Si       -6.727751923    22.916869086     5.519225772
 C       -5.115980211    23.551902814     6.222005203
 C       -7.031431657    23.736053894     3.866398991
 C       -8.126696998    23.312479372     6.692969045
 C       -5.746864201     9.058072325     6.116243315
 C       -4.048807157     9.418696770     3.607159337
 C       -3.871385168    13.240751963     1.648823296
 C       -3.325238712    13.456145821    -1.344376562
 C       -0.614460883    -0.877984740    -1.531397010
 C       -0.616395325    -0.876442911     1.531484932
 H        1.267918094     2.740253232     0.044240293
 H        0.326940390     4.979454815     0.041888229
 H       -3.656169527     3.350978465    -0.045182668
 H       -2.758395504     1.090596866    -0.043863875
 H       -3.428466250     5.665916857    -0.023448326
 H       -0.553141868     6.815175315     0.039154363
 H       -0.352261446     9.149696281     0.065343682
 H       -1.285833529    11.398515823     0.068151313
 H       -5.286084649     9.685075133    -0.063434272
 H       -4.308905198     7.459487130    -0.040658946
 H       -6.042285031    11.724926892    -1.408514598
 H       -6.793381653    13.010925681     1.335856095
 H       -9.047456481    13.198540403     1.820800831
 H      -11.438761490    12.894207331     1.250153375
 H      -10.304818988    11.140762676    -2.520996333
 H       -7.936134121    11.453314539    -1.958964834
 H      -13.941656603    12.066986274    -2.343479328
 H      -12.558455562    11.096681849    -2.934664051
 H      -12.404273632    12.867060284    -2.742386046
 H      -13.464871947     6.407380886    -0.857169235
 H      -13.190548732     7.169052226     0.741632238
 H      -12.169759636     5.807202823     0.206238631
 H       -9.251478893     7.220206922    -1.453410323
 H       -7.228619768     7.779524562    -0.126455889
 H       -9.736436098     9.346964982     3.009342480
 H      -11.741735303     8.730629617     1.715195821
 H       -6.198332325     8.639740738     1.754683022
 H       -8.058925528     9.777789512     3.989656144
 H       -7.331798979    12.103173879     3.360906424
 H       -7.373565786    14.509539103     3.704226453
 H       -4.050239804    14.223018179     6.423988007
 H       -3.981234897    11.807665110     6.125085975
 H       -4.949744573    16.343123985     6.005507793
 H       -7.331080812    16.485680046     4.030205281
 H       -4.924268667    18.345252620     6.337162831
 H       -4.983365287    20.750715933     6.660222801
 H       -8.321105686    21.002914189     3.878671071
 H       -8.234549355    18.588818702     3.597140890
 H      -12.388331111    10.478787931     0.718389174
 H      -13.974713270    11.206249697     0.332917794
 H      -14.032313146     8.836793578    -0.217466162
 H      -14.193773812     9.769517773    -1.690997323
 H      -12.652019095     8.292109947    -2.516615135
 H      -11.472769597     9.425468759    -1.802871679
 H        2.265754715    -1.031130076    -0.005492343
 H        2.275211612     0.504817678     0.894510276
 H        2.274024076     0.513954735    -0.889949278
 H       -5.120494460    24.654095034     6.296104318
 H       -4.260341783    23.266470731     5.583779880
 H       -4.926681363    23.154803921     7.234739802
 H       -6.250623196    23.459694240     3.134604089
 H       -8.006067182    23.444494185     3.437659578
 H       -7.025881442    24.836654922     3.958284135
 H       -7.971244815    22.835734756     7.677699677
 H       -8.217913232    24.400236221     6.859003805
 H       -9.094840342    22.951122706     6.302447835
 H       -6.656858568     9.359770293     6.664758763
 H       -5.784164052     7.960726137     5.990800954
 H       -4.879748387     9.289747695     6.759220172
 H       -3.987061192     9.830821727     2.580926667
 H       -3.155559641     9.773554415     4.150953336
 H       -3.967824599     8.319633298     3.518848320
 H       -4.412626234    12.711285016     2.456950791
 H       -2.806272872    13.270028924     1.938309798
 H       -4.242126996    14.282505737     1.642149183
 H       -3.414606032    12.974971224    -2.334473925
 H       -3.805107412    14.449342833    -1.413972539
 H       -2.250958559    13.619057173    -1.149375090
 H       -0.271931358    -0.366704747    -2.449477167
 H       -0.247451446    -1.918588197    -1.572793605
 H       -1.717740077    -0.911512488    -1.565268538
 H       -0.268951128    -0.368457503     2.449531304
 H       -1.719874409    -0.902741178     1.567123103
 H       -0.255937586    -1.919371334     1.570971619

