139   

Si        0.000000000     0.000000000     0.000000000
 C        1.869564508     0.000000000     0.000000000
 C       -0.617876828     1.738169670     0.000000000
 C       -1.633559312     2.147400213    -0.868955007
 C       -2.088964283     3.465684620    -0.855761168
 C       -1.530702252     4.405442177     0.014445410
 C       -0.514253502     3.992947859     0.886215814
 C       -0.068702198     2.674146491     0.886447656
 C       -1.974881377     5.794416792     0.063100349
 C       -2.947922854     6.310165281    -0.706713640
 C       -3.393492804     7.698240447    -0.659726649
 C       -4.421898489     8.103145465    -1.521960809
 C       -4.880851596     9.416558214    -1.513915836
 C       -4.323063324    10.360560736    -0.639046111
 C       -3.295023150     9.960054465     0.217512924
 C       -2.831994287     8.643714998     0.202138427
Si       -4.970050012    12.085648330    -0.671735089
 C       -6.763476778    12.130274206    -0.299008562
 C       -7.546688394    11.077519531    -0.031360952
 C       -8.980485102    11.185060954     0.259595079
 C       -9.710365544    10.017214446     0.527285950
 C      -11.068488402    10.074764586     0.807220089
 C      -11.731259331    11.312771061     0.813891759
 C      -11.012610399    12.482105944     0.539369960
 C       -9.651466938    12.411105360     0.262658937
 N      -13.134269743    11.293468139     1.111535835
 C      -13.405232040    11.188355010     2.560235761
 C      -13.904232533    12.371404069     0.463929745
 C      -12.877759631    12.372653625     3.389394878
 C      -12.999401103    12.092884595     4.898109999
 N      -11.878730922    12.629502052     5.689755186
 C      -10.603306197    12.071656472     5.468471675
 C      -10.450999113    10.833383778     4.812078163
 C       -9.189884599    10.299377065     4.602729668
 C       -8.041764123    10.942229057     5.085890829
 C       -8.194647022    12.154489013     5.763534036
 C       -9.449935963    12.715616759     5.957886978
 C      -11.930015672    14.096099939     5.828385946
 C       -6.740422597    10.326174311     4.831066444
 C       -5.564335060    10.826813207     5.231784638
Si       -3.942698788    10.038881122     4.902156823
 C       -4.195170248     8.479317823     3.949581006
 C       -3.648947822     7.262426775     4.365413152
 C       -3.858556777     6.100520982     3.622174590
 C       -4.639978089     6.126200998     2.464790740
 C       -5.188450273     7.347039656     2.049646874
 C       -4.960154022     8.512148218     2.775021236
 C       -4.887499440     4.938613294     1.655428283
 C       -4.423453254     3.709353781     1.936421940
 C       -4.676314046     2.526760429     1.120552688
 C       -5.440280570     2.571873941    -0.049962490
 C       -5.658960989     1.419492855    -0.801930709
 C       -5.119716411     0.192675767    -0.396381439
 C       -4.355626008     0.144793041     0.774537265
 C       -4.136057292     1.299239173     1.523065654
Si       -5.426702618    -1.315679214    -1.413057739
 C       -4.768295454    -1.006082370    -3.136277209
 C       -4.545034832    -2.792720802    -0.680202311
 C       -7.263966274    -1.647369959    -1.470279216
 C       -2.880737105    11.201798776     3.896674091
 C       -3.113201441     9.690472790     6.540480423
 C       -4.113642108    13.145145201     0.607763495
 C       -4.688139597    12.797175346    -2.375893113
 C       -0.610763289    -0.911228053    -1.513299501
 C       -0.637199988    -0.848465776     1.539781450
 H       -2.110276602     1.458917382    -1.572752741
 H       -2.891326896     3.754221586    -1.532598095
 H       -0.071600369     4.708659496     1.576316201
 H        0.720543385     2.408033473     1.594276453
 H       -1.455582852     6.417283376     0.797787357
 H       -3.469931978     5.684943229    -1.436526290
 H       -4.866199682     7.383882284    -2.206845878
 H       -5.684352078     9.674070122    -2.210647982
 H       -2.821283249    10.650864485     0.920515326
 H       -2.032312744     8.355275138     0.882857404
 H       -7.175805419    13.153248931    -0.309573948
 H       -7.170048630    10.046051974    -0.002478614
 H       -9.205159430     9.051030668     0.523671933
 H      -11.631856213     9.166512814     1.014133016
 H      -11.508557983    13.448344758     0.546793489
 H       -9.106696672    13.332679484     0.056172013
 H      -14.978661733    12.137536784     0.560278445
 H      -13.668894452    12.387327427    -0.614526861
 H      -13.729221532    13.376501415     0.874980376
 H      -12.975442612    14.440673644     5.878138165
 H      -11.428482645    14.627768539     5.003332511
 H      -11.452704909    14.385320028     6.782280975
 H      -11.315224406    10.291872268     4.440188310
 H       -9.094712975     9.357141735     4.060068677
 H       -7.317322770    12.674603810     6.149296519
 H       -9.528857446    13.656265147     6.492972861
 H       -6.823420261     9.380801205     4.272015073
 H       -5.505120227    11.767075440     5.798507610
 H       -3.043658562     7.177507393     5.271215690
 H       -3.410068486     5.167242325     3.956911038
 H       -5.785778997     7.391175266     1.139890201
 H       -5.391393741     9.441453630     2.384615915
 H       -5.498070245     5.113765166     0.764611106
 H       -3.805633493     3.533196763     2.821340557
 H       -5.871570619     3.513953675    -0.383185741
 H       -6.262744522     1.517205277    -1.707981501
 H       -3.913525557    -0.786192955     1.139241326
 H       -3.530526843     1.245426023     2.426170819
 H      -14.503130284    11.076743212     2.695301008
 H      -12.944405551    10.235384743     2.910958053
 H      -11.814727337    12.558371459     3.124082885
 H      -13.411050672    13.300950984     3.125765216
 H      -13.944589159    12.523491336     5.298038317
 H      -13.070305420    10.999385808     5.103692191
 H        2.271097228    -1.027956788    -0.028626457
 H        2.278427518     0.491599018     0.899821530
 H        2.268317151     0.537484209    -0.879538144
 H       -4.918511386    -1.884972208    -3.787006975
 H       -3.685590137    -0.785101897    -3.118610001
 H       -5.272442762    -0.147911215    -3.614266101
 H       -3.455001547    -2.622993921    -0.614143975
 H       -4.911822004    -3.019874089     0.336474569
 H       -4.701767395    -3.696001493    -1.295953536
 H       -7.817056986    -0.796616861    -1.905893277
 H       -7.494075194    -2.540617383    -2.076894751
 H       -7.670890886    -1.819184674    -0.457088229
 H       -3.367959768    11.456809428     2.937830030
 H       -2.693237780    12.145416119     4.437438716
 H       -1.901091347    10.747673601     3.665211685
 H       -3.713554662     8.991445711     7.151124872
 H       -2.113061695     9.244587227     6.403402789
 H       -2.986090164    10.615043940     7.130812451
 H       -4.360413356    12.812176024     1.633979836
 H       -3.016238464    13.115252094     0.492719744
 H       -4.425689900    14.201456604     0.525220574
 H       -5.211204173    12.209319040    -3.151363096
 H       -5.050526103    13.837406062    -2.447419999
 H       -3.613554994    12.799232873    -2.633574704
 H       -0.284192300    -0.410299244    -2.442175559
 H       -0.226216744    -1.945704410    -1.541081945
 H       -1.713418316    -0.967232971    -1.533432377
 H       -0.272428230    -0.347903601     2.453985576
 H       -1.741891993    -0.833356741     1.573569386
 H       -0.313572256    -1.902473950     1.582916267

