139   

Si        0.000000000     0.000000000     0.000000000
 C        1.869502279     0.000000000     0.000000000
 C       -0.646134787     1.728074417     0.000000000
 C        0.209219856     2.825020897     0.138594650
 C       -0.298954806     4.123807163     0.136124752
 C       -1.667844010     4.352876617    -0.021003382
 C       -2.523881027     3.252358153    -0.162698211
 C       -2.021459492     1.954558308    -0.147413050
 C       -2.242772440     5.692954716    -0.029749333
 C       -1.535842698     6.826815641     0.109024449
 C       -2.115363641     8.164816549     0.099620377
 C       -1.263642440     9.265854933     0.254618578
 C       -1.770150581    10.562875217     0.252271529
 C       -3.149983927    10.789579659     0.162366912
 C       -4.002965670     9.687728713     0.039556160
 C       -3.491433356     8.391250182     0.007252068
Si       -3.786765885    12.523746318     0.162031476
 C       -5.253917863    12.762016963    -0.910163762
 C       -5.853415653    11.817783837    -1.645297899
 C       -7.024321170    12.032061853    -2.494118377
 C       -7.532377041    10.933044308    -3.202330294
 C       -8.636717291    11.062883605    -4.023500696
 C       -9.212808536    12.327636082    -4.261395110
 C       -8.687903676    13.436765339    -3.569764824
 C       -7.631079491    13.275652645    -2.679996338
 N      -10.334433295    12.436171273    -5.099131436
 C      -10.480891883    11.468815488    -6.200099503
 C      -10.768492414    13.794441448    -5.463507608
 C       -9.520868401    11.672249908    -7.388942403
 C       -8.304270177    10.724895601    -7.404413260
 N       -8.573292197     9.281827711    -7.585989282
 C       -8.710379065     8.560814234    -6.365331879
 C       -7.544619038     8.401205328    -5.590481417
 C       -7.596398370     7.711617573    -4.389556610
 C       -8.797664434     7.142546746    -3.937988559
 C       -9.942613100     7.280715393    -4.725839700
 C       -9.904106857     7.966879852    -5.935941687
 C       -9.581733133     8.984830754    -8.613718824
 C       -8.801803590     6.422718654    -2.661158756
 C       -9.888748790     5.842450707    -2.136465498
Si       -9.953224771     4.931750547    -0.548652072
 C       -8.299011853     4.907981169     0.263862003
 C       -7.621286324     3.708361996     0.505752647
 C       -6.371713691     3.715996581     1.121472969
 C       -5.781617956     4.918783945     1.530068851
 C       -6.462338269     6.116349129     1.290675778
 C       -7.704042974     6.113297554     0.657714723
 C       -4.472687411     4.869177178     2.169377412
 C       -3.782343687     5.941109503     2.593787751
 C       -2.471928038     5.871681513     3.232251547
 C       -1.813209362     4.659416927     3.459664614
 C       -0.562427387     4.633713066     4.072295991
 C        0.071061858     5.826617696     4.441638313
 C       -0.580011761     7.041765217     4.203253031
 C       -1.839171778     7.062765310     3.607497086
Si        1.727166114     5.753986659     5.250905689
 C        2.892743241     4.825767615     4.120184165
 C        2.396558740     7.473039127     5.551794919
 C        1.557871228     4.854834507     6.880069257
 C      -11.163698048     5.793051236     0.584909494
 C      -10.549472628     3.196186472    -0.900804474
 C       -4.273560770    12.949212974     1.916895061
 C       -2.459987385    13.697939441    -0.436530735
 C       -0.616812303    -0.882498516    -1.527341478
 C       -0.625124615    -0.860623332     1.537462158
 H        1.289478582     2.708951729     0.258533407
 H        0.384556507     4.962101860     0.261394108
 H       -3.594615067     3.414300986    -0.285428368
 H       -2.736112586     1.134720072    -0.257566412
 H       -3.328623704     5.724294460    -0.171905362
 H       -0.452073195     6.795518181     0.252386989
 H       -0.191404883     9.109552361     0.357105518
 H       -1.050277139    11.381089124     0.340891981
 H       -5.091535711     9.797964318    -0.006472669
 H       -4.176967559     7.550303434    -0.097265600
 H       -5.636803167    13.794989179    -0.896467804
 H       -5.484441068    10.782002578    -1.694824128
 H       -7.076758676     9.948050128    -3.077756135
 H       -9.062868299    10.171953889    -4.481104037
 H       -9.105986543    14.427301306    -3.709754341
 H       -7.262387494    14.145528705    -2.135844925
 H      -11.640916780    13.746589038    -6.135804016
 H       -9.983261038    14.390255317    -5.956407996
 H      -11.097241192    14.324025067    -4.549956372
 H       -9.269402475     9.456275138    -9.561839230
 H      -10.600282216     9.325326811    -8.372691380
 H       -9.607902179     7.893705696    -8.785627877
 H       -6.605422035     8.823936228    -5.945580990
 H       -6.686930548     7.594969450    -3.797639024
 H      -10.886578784     6.845010655    -4.397595612
 H      -10.808757784     8.048651489    -6.530727787
 H       -7.819341484     6.400989337    -2.168338201
 H      -10.860294763     5.880304411    -2.655647538
 H       -8.037176341     2.738940930     0.219078483
 H       -5.855636884     2.773319126     1.294100149
 H       -6.025532310     7.064354510     1.601629790
 H       -8.187107857     7.081521202     0.489020600
 H       -4.061320235     3.861958125     2.292507874
 H       -4.181653948     6.953043471     2.474271428
 H       -2.275364438     3.720181133     3.158456215
 H       -0.102266912     3.654730580     4.232695256
 H       -0.131112347     8.002394857     4.468011311
 H       -2.330215754     8.017706696     3.425092060
 H      -10.382359145    10.439287719    -5.784671179
 H      -11.536107862    11.533757457    -6.554974053
 H      -10.082546142    11.571439629    -8.335740395
 H       -9.143254683    12.714227727    -7.388513595
 H       -7.633428986    11.018549280    -8.247738491
 H       -7.711917804    10.871622929    -6.470697321
 H        2.267018700    -1.030350495    -0.023433291
 H        2.277043678     0.490202740     0.901759954
 H        2.272186769     0.528771735    -0.882505124
 H        3.902059583     4.748483585     4.559679529
 H        2.990681574     5.334575867     3.144182201
 H        2.533730215     3.799831526     3.923502507
 H        2.490527182     8.041133122     4.609212656
 H        1.741604965     8.050416132     6.228334614
 H        3.397886052     7.434926498     6.016216677
 H        1.169199873     3.830734918     6.738655395
 H        2.528744449     4.775500138     7.399329590
 H        0.859581298     5.380987714     7.556093319
 H      -10.863477560     6.839643094     0.775338589
 H      -12.179904109     5.812542451     0.153605485
 H      -11.224628604     5.282819722     1.563192243
 H       -9.872439620     2.670899433    -1.598655442
 H      -10.612812819     2.596193146     0.024309913
 H      -11.554079622     3.202411980    -1.360258848
 H       -5.082411971    12.287727881     2.277312822
 H       -3.419870526    12.835742349     2.608165367
 H       -4.634299530    13.989445189     1.995807886
 H       -2.098830271    13.409606242    -1.440859611
 H       -2.844294131    14.731019986    -0.508676725
 H       -1.590061631    13.715482636     0.242054288
 H       -0.277068716    -0.372523527    -2.447314710
 H       -0.247639458    -1.922288352    -1.567377223
 H       -1.719866663    -0.918832627    -1.559371362
 H       -0.274463634    -0.350189607     2.452738847
 H       -1.728833758    -0.876672657     1.570886096
 H       -0.274462739    -1.906349591     1.583167252

