139   

Si        0.000000000     0.000000000     0.000000000
 C        1.869647739     0.000000000     0.000000000
 C       -0.633241551     1.734275535     0.000000000
 C        0.091582172     2.755934629    -0.623292706
 C       -0.385388721     4.066142599    -0.624104288
 C       -1.599897430     4.384820818    -0.009994817
 C       -2.327002728     3.359618595     0.608875437
 C       -1.851813915     2.050399212     0.613313898
 C       -2.137729902     5.741272500     0.013785920
 C       -1.539446228     6.810038800    -0.539032487
 C       -2.075544529     8.167156081    -0.516357458
 C       -3.289929299     8.487874544     0.097266084
 C       -3.764899633     9.798874305     0.095174054
 C       -3.028798173    10.819423377    -0.515374616
 C       -1.811634364    10.502194727    -1.130684666
 C       -1.343880047     9.190541024    -1.133173882
Si       -3.649765452    12.557196716    -0.522895023
 C       -2.213620810    13.674049851    -0.724479469
 C       -2.021840734    14.544985455    -1.723974660
 C       -0.848854088    15.415261356    -1.832128041
 C       -0.750233659    16.291256392    -2.922983667
 C        0.339742875    17.132899753    -3.067888647
 C        1.354488095    17.166550808    -2.089443034
 C        1.256319008    16.291089948    -0.994238930
 C        0.180367502    15.417050989    -0.888014175
 N        2.454403352    18.036221962    -2.265887264
 C        2.139465518    19.390123892    -2.759728984
 C        3.467666543    18.045556765    -1.197431936
 C        1.220487301    20.184813517    -1.815909738
 C        0.869585214    21.578976537    -2.362533142
 N        0.189287379    21.607692562    -3.675206013
 C       -0.790585571    20.609524647    -3.875340221
 C       -1.782372876    20.440805524    -2.885859279
 C       -2.762769850    19.475469086    -3.038840865
 C       -2.812546652    18.670877635    -4.187924307
 C       -1.846113943    18.861431190    -5.177665424
 C       -0.852312616    19.824115969    -5.037715988
 C        1.100657005    21.874213165    -4.799741093
 C       -3.870307267    17.664333786    -4.300158262
 C       -4.012800801    16.844180572    -5.349316691
Si       -5.317257370    15.572434741    -5.533723239
 C       -6.305377479    15.952710428    -7.042602585
 C       -6.350195958    17.257300017    -7.548822298
 C       -7.096433300    17.545698150    -8.688753414
 C       -7.821014615    16.541665429    -9.344130088
 C       -7.777436285    15.241192653    -8.832994214
 C       -7.028342208    14.948207243    -7.694081383
 C       -8.587923121    16.893218014   -10.535034026
 C       -9.320148853    16.027459783   -11.256004313
 C      -10.087199693    16.378441285   -12.446908900
 C      -10.132033416    17.677995484   -12.959476804
 C      -10.878418379    17.968812001   -14.100734437
 C      -11.590905611    16.962194303   -14.761510360
 C      -11.546687669    15.659101242   -14.250702342
 C      -10.806532610    15.372993860   -13.106078562
Si      -12.578505366    17.349978359   -16.272592131
 C      -11.755587673    18.724661956   -17.236343602
 C      -12.705278233    15.837522924   -17.364166532
 C      -14.286059348    17.886905981   -15.736266094
 C       -4.469544126    13.915505181    -5.694769386
 C       -6.469062676    15.564682260    -4.063470711
 C       -4.881617871    12.734699016    -1.912718018
 C       -4.470471603    12.962100605     1.106585645
 C       -0.632219640    -0.854764695    -1.536682456
 C       -0.604984508    -0.903887792     1.520679269
 H        1.046901682     2.568800290    -1.121593167
 H        0.200912130     4.843378250    -1.111246901
 H       -3.275417475     3.585481533     1.092973343
 H       -2.462379763     1.293843414     1.113742031
 H       -3.097172964     5.843889145     0.529153364
 H       -0.579975393     6.706460372    -1.054698115
 H       -3.877643779     7.711525698     0.583685180
 H       -4.721867602     9.988673043     0.588460589
 H       -1.195066275    11.262433788    -1.622654173
 H       -0.396760807     8.961607849    -1.618601897
 H       -1.473714763    13.572442329     0.086949638
 H       -2.737426852    14.676217112    -2.546723788
 H       -1.541585457    16.310607618    -3.677277571
 H        0.399353684    17.780300081    -3.940949346
 H        2.015021770    16.281141746    -0.218772298
 H        0.139345071    14.735988937    -0.036711134
 H        4.304562545    18.702103432    -1.489732010
 H        3.885451723    17.028294655    -1.085870168
 H        3.083750623    18.383831865    -0.222012552
 H        1.687314013    22.783409106    -4.581032557
 H        0.506479195    22.093818195    -5.705636600
 H        1.799210229    21.053303925    -5.023866536
 H       -1.774598030    21.072691525    -2.001251125
 H       -3.510583615    19.344944685    -2.255723337
 H       -1.864312320    18.252169889    -6.083004159
 H       -0.119324787    19.940931498    -5.829548107
 H       -4.543737165    17.645594673    -3.432948336
 H       -3.319936570    16.887865927    -6.205709873
 H       -5.805354336    18.081610829    -7.076578482
 H       -7.116204194    18.564634619    -9.071231384
 H       -8.331055814    14.442832534    -9.323782629
 H       -7.029799704    13.912659089    -7.342811852
 H       -8.530943786    17.947770325   -10.820795705
 H       -9.377456203    14.972757367   -10.970627140
 H       -9.582065488    18.478437335   -12.467526214
 H      -10.876635664    19.004449098   -14.451844185
 H      -12.082296207    14.832124394   -14.724976399
 H      -10.786554806    14.354173683   -12.723316212
 H        3.094043228    19.934604982    -2.927224843
 H        1.663093044    19.286012607    -3.762706684
 H        0.291508955    19.601472789    -1.637066633
 H        1.694137447    20.291140221    -0.822558696
 H        0.188565452    22.091258681    -1.639499724
 H        1.785917309    22.206628341    -2.414493728
 H        2.267999507    -1.028358081     0.062287902
 H        2.269657325     0.563912216     0.862138482
 H        2.279725521     0.457576279    -0.917185530
 H      -12.296435148    18.931921755   -18.176794939
 H      -10.716413733    18.459018808   -17.502550172
 H      -11.722063365    19.666014425   -16.660589450
 H      -11.704937511    15.447366693   -17.625219053
 H      -13.264112774    15.022437368   -16.872098693
 H      -13.226858084    16.070630679   -18.309601238
 H      -14.241824516    18.779471258   -15.086644159
 H      -14.921187634    18.135785485   -16.604394790
 H      -14.796917554    17.090591237   -15.165449628
 H       -3.865048882    13.862296081    -6.618431157
 H       -3.787526000    13.728825828    -4.843740193
 H       -5.197293754    13.086198220    -5.726352816
 H       -7.028484215    16.515188207    -3.989840985
 H       -7.214571827    14.753478173    -4.142363619
 H       -5.919168512    15.425874729    -3.115138583
 H       -4.415205235    12.535820574    -2.895205604
 H       -5.719061731    12.023297717    -1.798470560
 H       -5.310253797    13.752498566    -1.943080349
 H       -3.788753406    12.778612365     1.956546307
 H       -4.770889122    14.024673063     1.147271929
 H       -5.376701058    12.353630231     1.269271057
 H       -0.287212314    -0.342586175    -2.452831761
 H       -0.284578702    -1.901466317    -1.587331582
 H       -1.736742288    -0.867308419    -1.564064604
 H       -0.315906216    -0.370327514     2.444219793
 H       -1.703985196    -1.008324129     1.525269544
 H       -0.176920641    -1.920590338     1.577395386

