139   

Si        0.000000000     0.000000000     0.000000000
 C        1.869364375     0.000000000     0.000000000
 C       -0.643502331     1.730787304     0.000000000
 C        0.158374656     2.798967338    -0.414560839
 C       -0.337593701     4.102497051    -0.410647201
 C       -1.646140991     4.367726219     0.001828667
 C       -2.449880367     3.295878331     0.412550094
 C       -1.957082704     1.993526787     0.410465988
 C       -2.206989312     5.714928266     0.022326344
 C       -1.542995234     6.824186483    -0.344574145
 C       -2.101036479     8.172297529    -0.325148567
 C       -3.408536832     8.442153846     0.086384128
 C       -3.900745894     9.747805149     0.088747419
 C       -3.094900454    10.810771928    -0.327147599
 C       -1.782391205    10.543582959    -0.742256706
 C       -1.293301177     9.240746668    -0.739028523
Si       -3.704452838    12.551243231    -0.340126187
 C       -2.690608615    13.575349899     0.792798715
 C       -1.661528159    13.119276397     1.518636063
 C       -0.858778904    13.947929891     2.420713558
 C        0.196017233    13.348074337     3.127147094
 C        0.985065904    14.087490739     3.992533521
 C        0.763477323    15.471016526     4.145553601
 C       -0.289787104    16.073600870     3.443059286
 C       -1.100200315    15.310162979     2.608827684
 N        1.606076619    16.174903253     5.048337648
 C        3.037394159    16.154638702     4.667674790
 C        1.148069723    17.522875785     5.429502080
 C        3.328611262    16.691954458     3.254111953
 C        3.518380565    15.549345531     2.235197200
 N        3.174460219    15.924390823     0.853374194
 C        3.876258878    16.997342407     0.282016750
 C        5.225784213    17.222294370     0.633150223
 C        5.928965667    18.277560289     0.076282782
 C        5.342445826    19.117484188    -0.881402092
 C        4.016753694    18.873935467    -1.251042638
 C        3.291207002    17.831024443    -0.691091786
 C        1.732524558    15.836445051     0.573338880
 C        6.130818248    20.218227831    -1.437633402
 C        5.674277216    21.080570286    -2.355514976
Si        6.625829957    22.469283026    -3.076594191
 C        6.731456245    22.213790004    -4.901350822
 C        6.540763733    20.939939042    -5.450242564
 C        6.620356765    20.746547505    -6.827183626
 C        6.899879673    21.816928710    -7.686752780
 C        7.094534809    23.086443670    -7.134497250
 C        7.012400046    23.284358283    -5.756733821
 C        6.972876445    21.563651354    -9.122103581
 C        7.229102203    22.498764720   -10.052488579
 C        7.301897733    22.244513499   -11.487647797
 C        7.107077027    20.974482629   -12.039103161
 C        7.185625499    20.776168516   -13.416466549
 C        7.456461176    21.847480357   -14.276313972
 C        7.651050187    23.119624038   -13.726906404
 C        7.576157329    23.314053585   -12.349262793
Si        7.554751043    21.555739471   -16.096431234
 C        6.007428867    20.667530364   -16.654066041
 C        7.698019393    23.174112682   -17.020811595
 C        9.058811061    20.503778450   -16.447999615
 C        5.711713314    24.055545775    -2.702093073
 C        8.359194342    22.552654775    -2.387332785
 C       -3.555166239    13.234561849    -2.072310657
 C       -5.483463569    12.642077860     0.221286331
 C       -0.630084230    -0.862215304    -1.533015715
 C       -0.605516801    -0.892114066     1.527203811
 H        1.189725632     2.654885164    -0.748383596
 H        0.308587991     4.916204736    -0.735386656
 H       -3.472441469     3.480224764     0.737158551
 H       -2.631024030     1.198466287     0.741508699
 H       -3.243283474     5.774084517     0.368137911
 H       -0.506967568     6.763523302    -0.691017136
 H       -4.057223807     7.630864753     0.411914549
 H       -4.930371089     9.897119771     0.425358097
 H       -1.106967727    11.336292243    -1.079931647
 H       -0.271894612     9.051326572    -1.064328580
 H       -3.000059361    14.631023663     0.838429214
 H       -1.338245251    12.068050723     1.495424393
 H        0.388216014    12.280934747     3.005849631
 H        1.770269796    13.602212835     4.568703718
 H       -0.486450236    17.137104561     3.541759170
 H       -1.926629415    15.794509406     2.087173584
 H        1.755858942    17.872697439     6.282790278
 H        0.103012275    17.470223546     5.782229009
 H        1.216050788    18.271386584     4.624830477
 H        1.303949463    14.943804729     1.067126472
 H        1.577441523    15.704286338    -0.512254934
 H        1.162371388    16.714058369     0.918358932
 H        5.720882840    16.569868039     1.346160151
 H        6.962837666    18.445934175     0.379349268
 H        3.535448589    19.510717858    -1.995422278
 H        2.263878782    17.679079556    -1.006584536
 H        7.148312743    20.271127766    -1.028109291
 H        4.646900260    21.002742567    -2.746659313
 H        6.322387495    20.066330106    -4.826432060
 H        6.464982362    19.749968729    -7.236674150
 H        7.313067172    23.934734951    -7.780366469
 H        7.172247602    24.299383917    -5.383256503
 H        6.799598029    20.522816827    -9.411590990
 H        7.402656597    23.539438953    -9.763159465
 H        6.892227644    20.125675804   -11.392173842
 H        7.026371970    19.759873711   -13.787956269
 H        7.865278251    23.992843019   -14.348993435
 H        7.732171687    24.311114207   -11.941346377
 H        3.599730945    16.745105162     5.425312850
 H        3.400932798    15.108218448     4.776759369
 H        2.507339327    17.356504576     2.922419281
 H        4.226381296    17.337028185     3.263674031
 H        4.571052382    15.186915483     2.250055064
 H        2.896075532    14.667413586     2.515976475
 H        2.267595969    -1.027777004     0.074770559
 H        2.270701971     0.573438791     0.855051824
 H        2.278648736     0.444727532    -0.924090881
 H        6.009435938    20.504524759   -17.746181016
 H        5.101388966    21.249865848   -16.405817873
 H        5.907838070    19.680031811   -16.170180067
 H        6.839717292    23.836639892   -16.808992314
 H        8.619187634    23.718779723   -16.747850880
 H        7.725218009    23.007772067   -18.112617297
 H        9.008258767    19.535728909   -15.918554320
 H        9.157721840    20.290289319   -17.526737790
 H        9.985684022    21.009378878   -16.121218672
 H        4.709019035    24.060804830    -3.166462047
 H        5.573333170    24.187368148    -1.613700036
 H        6.257579072    24.938269218    -3.077703044
 H        8.916656835    21.619712051    -2.589394822
 H        8.932022207    23.381326208    -2.840674764
 H        8.351426698    22.710719579    -1.294380641
 H       -2.505667335    13.236322625    -2.418062775
 H       -4.138314598    12.629130116    -2.789947896
 H       -3.926874783    14.272520156    -2.132202471
 H       -5.599035716    12.270307655     1.255903859
 H       -5.858824952    13.680920091     0.202091648
 H       -6.142792652    12.040308480    -0.429322823
 H       -0.286807860    -0.351575138    -2.450963669
 H       -0.277819123    -1.907619524    -1.580826186
 H       -1.734379963    -0.879645552    -1.560506320
 H       -0.296085941    -0.363303571     2.447118546
 H       -1.706393191    -0.972750789     1.545211715
 H       -0.197655291    -1.917153979     1.580134404

