139   

Si        0.000000000     0.000000000     0.000000000
 C        1.869073658     0.000000000     0.000000000
 C       -0.653254774     1.727012215     0.000000000
 C        0.195906163     2.834623525    -0.078346569
 C       -0.323332593     4.129363802    -0.076524388
 C       -1.702181556     4.345792474    -0.006910773
 C       -2.552074525     3.234099129     0.069876548
 C       -2.036194415     1.941193047     0.076808035
 C       -2.292924084     5.679912329    -0.002044684
 C       -1.595738356     6.827212008    -0.062510279
 C       -2.190822766     8.159674294    -0.057377955
 C       -1.345619593     9.275284553    -0.125146459
 C       -1.867367206    10.566567400    -0.123120184
 C       -3.251981403    10.771064751    -0.084403349
 C       -4.098081047     9.658810796    -0.022340062
 C       -3.571432168     8.367922316     0.000589770
Si       -3.947410321    12.482579707    -0.081603079
 C       -5.725080159    12.341120749    -0.509693156
 C       -6.788013936    12.712490449     0.214852890
 C       -8.173186790    12.544016353    -0.243979488
 C       -9.226950284    12.961053550     0.579412528
 C      -10.550542687    12.815788458     0.174782119
 C      -10.838668085    12.250779622    -1.071356818
 C       -9.792606990    11.830497103    -1.902992176
 C       -8.475757969    11.976315412    -1.487433302
 N      -12.161694672    12.044799933    -1.607768924
 C      -12.982955069    11.099480216    -0.826020555
 C      -12.829226555    13.324886922    -1.908755253
 C      -13.888031284    11.714768032     0.256054112
 C      -14.408983103    10.629153858     1.220866488
 N      -14.284849823    10.990704788     2.651984517
 C      -12.950967834    11.337596828     3.012146682
 C      -11.963052608    10.343807086     2.867302684
 C      -10.647737926    10.618939554     3.200425416
 C      -10.281903736    11.873782470     3.713422806
 C      -11.268461156    12.848042927     3.871534713
 C      -12.592093099    12.589196345     3.529773743
 C      -15.329832436    11.937150594     3.080353397
 C       -8.876332701    12.109245206     4.048517887
 C       -8.403943019    13.259928658     4.543393811
Si       -6.663866504    13.623975409     4.984116621
 C       -5.530245605    12.200492629     4.678829749
 C       -4.457210798    11.957731065     5.542658914
 C       -3.595425889    10.884550317     5.319927466
 C       -3.775510855    10.036839484     4.223183615
 C       -4.842774857    10.287921793     3.352209628
 C       -5.705921272    11.358022757     3.573008431
 C       -2.896505927     8.903749263     3.954977155
 C       -1.844171731     8.568017204     4.719966024
 C       -0.954392183     7.440387650     4.469059420
 C       -1.116243230     6.579488593     3.380499175
 C       -0.240006970     5.514527859     3.181827473
 C        0.821551096     5.289049933     4.065734361
 C        0.986817469     6.150913844     5.155476309
 C        0.108020135     7.213532773     5.353579010
Si        1.961569846     3.869257246     3.771093322
 C        2.906902133     4.186156009     2.188857581
 C        3.167426934     3.670800613     5.185690723
 C        0.936661095     2.316427104     3.606385770
 C       -6.095722116    15.054015439     3.920653612
 C       -6.626472163    14.110110704     6.787738048
 C       -3.614713831    13.287419939     1.561891675
 C       -3.137981465    13.488390510    -1.435166190
 C       -0.626045599    -0.880305922    -1.523593749
 C       -0.609048129    -0.862291686     1.542707576
 H        1.282565144     2.726314125    -0.143653350
 H        0.359579955     4.975654391    -0.141641354
 H       -3.629172193     3.379949723     0.127803389
 H       -2.748400099     1.113968595     0.142671039
 H       -3.385470085     5.694589902     0.053902653
 H       -0.502695218     6.814297474    -0.117645177
 H       -0.266823842     9.134417649    -0.166203756
 H       -1.158799361    11.398620229    -0.157803314
 H       -5.188131209     9.760197409     0.008034934
 H       -4.250623956     7.519227551     0.055658133
 H       -5.863067864    11.885626158    -1.507740408
 H       -6.704489557    13.177047017     1.204254061
 H       -9.015193422    13.394336584     1.559128655
 H      -11.354836869    13.132454627     0.835098395
 H      -10.027212478    11.389630313    -2.871476457
 H       -7.674537047    11.641962593    -2.146352915
 H      -13.799777821    13.120759093    -2.389308829
 H      -12.207844344    13.878715544    -2.635638124
 H      -12.992239806    13.973443215    -1.035043802
 H      -16.316107296    11.466859134     2.921381142
 H      -15.314538748    12.901168767     2.549577816
 H      -15.235367898    12.122533030     4.164758226
 H      -12.239843446     9.359387902     2.496311979
 H       -9.888878121     9.846347164     3.068595758
 H      -11.008594391    13.829804054     4.268723818
 H      -13.333673739    13.371363584     3.659164223
 H       -8.243042830    11.227274813     3.875364788
 H       -9.077094801    14.114828292     4.723450195
 H       -4.260969193    12.582465362     6.418087243
 H       -2.773059050    10.714092892     6.012470123
 H       -4.996378056     9.642302865     2.487331138
 H       -6.508238731    11.512110322     2.842501968
 H       -3.144740765     8.328641080     3.057325243
 H       -1.596743674     9.152512352     5.611574430
 H       -1.930580464     6.736136690     2.672666188
 H       -0.426144402     4.867313901     2.317333692
 H        1.796211828     6.023102185     5.878339561
 H        0.251358052     7.872622143     6.207310879
 H      -13.611311445    10.556318314    -1.571290871
 H      -12.304472329    10.340824025    -0.372643622
 H      -13.324138951    12.486791025     0.814969280
 H      -14.733436961    12.249658566    -0.209533981
 H      -15.474487362    10.397715352     1.008099420
 H      -13.860414915     9.670414366     1.075423276
 H        2.266837950    -1.029716942     0.040950515
 H        2.272852323     0.545462405     0.872543241
 H        2.275789791     0.473958111    -0.910812623
 H        3.585981718     3.349588139     1.951233745
 H        3.518769935     5.102481663     2.267209219
 H        2.221060828     4.318976517     1.333091036
 H        3.813717475     4.559024442     5.296913951
 H        2.641533095     3.516634907     6.144795093
 H        3.827943404     2.799906432     5.028165282
 H        0.193918344     2.416306044     2.791947807
 H        1.563721043     1.436202590     3.384412897
 H        0.376374471     2.104815551     4.534540654
 H       -6.152492096    14.805906779     2.844821013
 H       -6.715514664    15.952114205     4.087578701
 H       -5.048335295    15.324484445     4.143703040
 H       -6.888521436    13.253143865     7.435735232
 H       -5.629041447    14.469012173     7.095396653
 H       -7.348357645    14.917540064     7.003509488
 H       -3.948012542    12.649349056     2.404626651
 H       -2.534221650    13.465498441     1.710067244
 H       -4.129726409    14.259702860     1.654698910
 H       -3.251054670    13.005139082    -2.421843161
 H       -3.587129225    14.495386561    -1.505701936
 H       -2.057354811    13.618314333    -1.250916066
 H       -0.283370055    -0.377705084    -2.446342231
 H       -0.268165841    -1.924327023    -1.561054533
 H       -1.729819680    -0.904982171    -1.553466403
 H       -0.270924645    -0.335134349     2.454303639
 H       -1.711853587    -0.905113002     1.576774495
 H       -0.234123691    -1.899230584     1.598429930

