139   

Si        0.000000000     0.000000000     0.000000000
 C        1.869588051     0.000000000     0.000000000
 C       -0.633553448     1.734343451     0.000000000
 C        0.110343013     2.764794232    -0.585044743
 C       -0.368366347     4.074363757    -0.584874875
 C       -1.602557628     4.384090408    -0.006524706
 C       -2.348373795     3.350235391     0.574476209
 C       -1.872168241     2.041353102     0.576829706
 C       -2.142372585     5.739806714     0.016472929
 C       -1.527023454     6.815317555    -0.503672876
 C       -2.062912096     8.172445962    -0.482966949
 C       -3.296706746     8.487741639     0.094129080
 C       -3.770245398     9.799055054     0.091302729
 C       -3.014823630    10.825381972    -0.486152896
 C       -1.779276828    10.513452217    -1.065672837
 C       -1.311883408     9.201375347    -1.065976039
Si       -3.642617837    12.560716826    -0.489313934
 C       -2.247845297    13.684988642    -0.873019622
 C       -2.189095467    14.517448633    -1.920800360
 C       -1.059525953    15.405447741    -2.201979434
 C       -1.112773552    16.234058094    -3.332513720
 C       -0.071280748    17.092105318    -3.643393148
 C        1.095505196    17.118120458    -2.847793017
 C        1.150285306    16.286641369    -1.713268084
 C        0.077600176    15.464045779    -1.392359068
 N        2.141668928    17.995260363    -3.178711667
 C        2.379526277    18.259342505    -4.609325645
 C        3.366548289    17.915929824    -2.369703499
 C        2.628403378    17.009113480    -5.470664929
 C        4.078344737    16.497461238    -5.418047961
 N        5.006225398    17.157215702    -6.353259176
 C        4.697022540    17.107806308    -7.721820842
 C        4.007438943    15.992992009    -8.247366897
 C        3.696504434    15.932177609    -9.595605419
 C        4.093985916    16.944978298   -10.480397979
 C        4.802797864    18.032779633    -9.963669184
 C        5.110261251    18.117933047    -8.611878749
 C        5.588217462    18.405801284    -5.839569315
 C        3.738245635    16.829803095   -11.895726112
 C        4.063744239    17.733962492   -12.828864704
Si        3.636855999    17.624371459   -14.607090034
 C        5.202994856    17.610936488   -15.582786327
 C        6.408142870    17.225413752   -14.983125282
 C        7.590170774    17.215288314   -15.719574565
 C        7.595450156    17.579616855   -17.072330384
 C        6.389276866    17.958384575   -17.668903258
 C        5.204618838    17.973668460   -16.933756329
 C        8.859068692    17.553193745   -17.801843458
 C        9.002042933    17.881797834   -19.097028127
 C       10.265811079    17.855292562   -19.826338547
 C       11.472100323    17.477007614   -19.231606984
 C       12.657395540    17.466277318   -19.967301780
 C       12.661321239    17.834634251   -21.315606764
 C       11.452478879    18.213987118   -21.915222271
 C       10.271116776    18.222806067   -21.179007863
Si       14.211814032    17.831354005   -22.317270113
 C       15.688109014    17.396287645   -21.256533293
 C       14.035737334    16.568273624   -23.683272922
 C       14.461443204    19.533983807   -23.047063375
 C        2.683631878    16.066652833   -14.995017468
 C        2.615411494    19.124955078   -15.050319885
 C       -5.007257044    12.697710812    -1.756084758
 C       -4.295029042    13.004818607     1.204178453
 C       -0.632971409    -0.855787592    -1.535535449
 C       -0.605149518    -0.901067480     1.522121813
 H        1.082042985     2.585313134    -1.053549874
 H        0.232347090     4.858210102    -1.043065511
 H       -3.312451565     3.568977875     1.030086817
 H       -2.498343204     1.277679889     1.046252021
 H       -3.118176167     5.835926211     0.501408949
 H       -0.551330519     6.717371907    -0.989244616
 H       -3.900440589     7.706258416     0.551708510
 H       -4.742448748     9.984576633     0.556016778
 H       -1.149421471    11.276777754    -1.534574517
 H       -0.350621281     8.976684225    -1.524558549
 H       -1.424238784    13.630386620    -0.142990183
 H       -2.995240849    14.596382030    -2.662349119
 H       -1.994096402    16.212969797    -3.974863784
 H       -0.159338742    17.746328534    -4.506400323
 H        2.024019940    16.278475117    -1.070246488
 H        0.139950773    14.841813592    -0.497764448
 H        4.098109559    18.664574358    -2.716137194
 H        3.844928825    16.922840047    -2.385317461
 H        3.121799453    18.173305798    -1.321497583
 H        5.790170933    18.314477099    -4.759591935
 H        4.950868702    19.289975504    -6.005227831
 H        6.564909343    18.577051473    -6.330866024
 H        3.711180176    15.174859228    -7.596824896
 H        3.144452213    15.071245900    -9.975061194
 H        5.127363582    18.834581799   -10.629476367
 H        5.663290106    18.980886818    -8.256242417
 H        3.172505615    15.917066150   -12.125601119
 H        4.631282316    18.641845906   -12.568210566
 H        6.462682661    16.927028157   -13.930674231
 H        8.518890972    16.918286150   -15.235539580
 H        6.366133348    18.245883605   -18.718393015
 H        4.293243704    18.280931776   -17.453666065
 H        9.722648822    17.236501266   -17.209281064
 H        8.138974164    18.198278156   -19.690163469
 H       11.496697133    17.185485640   -18.183070705
 H       13.569408984    17.161154154   -19.446889222
 H       11.394646295    18.511271691   -22.966145938
 H        9.341866754    18.519756435   -21.661794705
 H        1.489265040    18.810014918    -4.998970571
 H        3.226936846    18.972973292    -4.703028458
 H        1.941710907    16.196560262    -5.156041963
 H        2.347536511    17.227095924    -6.521585075
 H        4.488621943    16.589306173    -4.388564068
 H        4.098432789    15.403348370    -5.641716901
 H        2.268569354    -1.027570271     0.070823957
 H        2.269395612     0.571008082     0.857555677
 H        2.279574930     0.449812440    -0.921106800
 H       16.623598958    17.431094062   -21.843193320
 H       15.600499213    16.378586103   -20.836355687
 H       15.801626601    18.100512036   -20.412997248
 H       13.884002622    15.553517407   -23.272428206
 H       13.171696166    16.792365675   -24.333601833
 H       14.935778400    16.537921743   -24.322163380
 H       14.548655418    20.299091269   -22.254148976
 H       15.380995276    19.579558732   -23.656575626
 H       13.616724656    19.826251155   -23.695392353
 H        3.266840048    15.163448783   -14.737904723
 H        1.732595909    16.024856226   -14.435135995
 H        2.440394723    16.003117941   -16.070910088
 H        3.187344419    20.058719050   -14.901477875
 H        2.288665645    19.098625304   -16.104301765
 H        1.708358418    19.188323207   -14.422172908
 H       -4.642166654    12.446349748    -2.768762279
 H       -5.838699803    12.007260038    -1.527117749
 H       -5.423304633    13.720223596    -1.792299905
 H       -3.521578276    12.868725770     1.981753493
 H       -4.619828885    14.060544949     1.241441835
 H       -5.160822423    12.379627672     1.483428026
 H       -0.291794597    -0.341781416    -2.452236810
 H       -0.281772980    -1.901271094    -1.587965936
 H       -1.737472151    -0.872177839    -1.560473018
 H       -0.311702822    -0.368423829     2.444929000
 H       -1.704626855    -1.000427680     1.529810155
 H       -0.181532788    -1.919645176     1.578103336

