139   

Si        0.000000000     0.000000000     0.000000000
 C        1.869109180     0.000000000     0.000000000
 C       -0.658119386     1.724559919     0.000000000
 C        0.181382072     2.830106869    -0.164502604
 C       -0.339908670     4.124175926    -0.160922308
 C       -1.710040272     4.341906688     0.004382685
 C       -2.550634133     3.232071591     0.166806609
 C       -2.033453647     1.939669355     0.163787507
 C       -2.300849531     5.676166021     0.014923215
 C       -1.610989683     6.820486651    -0.129712462
 C       -2.204771965     8.153652522    -0.118736559
 C       -1.367762450     9.265981210    -0.280704165
 C       -1.889398329    10.557121222    -0.276936110
 C       -3.264995163    10.765221666    -0.117555936
 C       -4.102822625     9.657098679     0.043912436
 C       -3.576262135     8.365853678     0.046085185
Si       -3.960308926    12.474754906    -0.111996175
 C       -5.760490394    12.368349223    -0.432966787
 C       -6.723839278    12.797780008     0.393093921
 C       -8.156081516    12.698122069     0.106951984
 C       -9.072156691    13.184130494     1.051781591
 C      -10.437002865    13.113688425     0.829421791
 C      -10.939880802    12.502034122    -0.339885929
 C      -10.022189367    12.012721270    -1.287707131
 C       -8.655424417    12.133191190    -1.069307645
 N      -12.330812698    12.442832618    -0.543127441
 C      -13.159803567    12.177510691     0.646645530
 C      -12.802802389    11.729129958    -1.740530883
 C      -12.771130357    10.886556867     1.396330513
 C      -13.967023996    10.275797981     2.148953235
 N      -14.659400591     9.188473931     1.422035056
 C      -15.181751997     9.574013368     0.159325369
 C      -16.164913998    10.584176237     0.141921435
 C      -16.711804711    11.002340863    -1.059759537
 C      -16.327339794    10.411367437    -2.273649240
 C      -15.371550361     9.393619421    -2.247530996
 C      -14.807599125     8.968563331    -1.049076400
 C      -13.902998242     7.924384310     1.445437298
 C      -16.936881073    10.891372249    -3.516393564
 C      -16.647721626    10.403591855    -4.729532340
Si      -17.384705679    10.972938031    -6.308480178
 C      -18.242596131     9.542510468    -7.095638332
 C      -18.648967393     8.447267011    -6.323792795
 C      -19.296712466     7.367460382    -6.918759976
 C      -19.560335154     7.358943570    -8.294729508
 C      -19.156963513     8.456340317    -9.061194088
 C      -18.505478541     9.537880989    -8.469417177
 C      -20.241680977     6.204454408    -8.871440770
 C      -20.550639916     6.069234312   -10.172251030
 C      -21.232039515     4.914311397   -10.748090704
 C      -21.635248418     3.817011480    -9.981009486
 C      -22.283643568     2.734213794   -10.572278949
 C      -22.541022866     2.722889888   -11.948541774
 C      -22.138032402     3.819630458   -12.718475899
 C      -21.492567434     4.902026811   -12.124046796
Si      -23.401601343     1.275534049   -12.705424411
 C      -22.527658663    -0.293012278   -12.185844519
 C      -25.168841635     1.254308074   -12.098235795
 C      -23.385725496     1.396400905   -14.570586887
 C      -18.627206935    12.339144520    -6.038092531
 C      -15.997257011    11.577510223    -7.403544306
 C       -3.598515416    13.258866809     1.543526922
 C       -3.187542153    13.484735618    -1.480914140
 C       -0.622189980    -0.871463140    -1.531585086
 C       -0.609505236    -0.882773282     1.531013848
 H        1.261332221     2.723321534    -0.298209724
 H        0.335803285     4.967991422    -0.289409722
 H       -3.621265914     3.379621407     0.296639263
 H       -2.738233198     1.113655072     0.294116946
 H       -3.386021967     5.694132199     0.153667747
 H       -0.526049132     6.803680355    -0.268449254
 H       -0.296859664     9.122035369    -0.410299406
 H       -1.188415002    11.386195640    -0.405823990
 H       -5.185329206     9.762044937     0.173971224
 H       -4.248449073     7.519571076     0.176021489
 H       -6.007313925    11.908962295    -1.403850181
 H       -6.508713534    13.262500496     1.364526004
 H       -8.705853359    13.638047869     1.973040055
 H      -11.121122458    13.533895222     1.561108320
 H      -10.366756867    11.539602737    -2.201872861
 H       -7.965535140    11.760322750    -1.828282856
 H      -13.903966090    11.807899741    -1.812711257
 H      -12.543348501    10.658366182    -1.750034668
 H      -12.389746930    12.213841081    -2.642949982
 H      -13.764297501     7.617897632     2.497630505
 H      -12.913227315     7.977180405     0.965651017
 H      -14.494848987     7.130352493     0.957247317
 H      -16.499138337    11.024826784     1.078917967
 H      -17.463415801    11.792433268    -1.058510694
 H      -15.059804356     8.914304816    -3.177128925
 H      -14.063328528     8.177669852    -1.066149516
 H      -17.664594709    11.698183289    -3.358332286
 H      -15.912049249     9.592293003    -4.856757021
 H      -18.472139908     8.400669784    -5.244035831
 H      -19.602177857     6.522459657    -6.304105500
 H      -19.349723918     8.474531257   -10.132309519
 H      -18.212328310    10.366404067    -9.119957747
 H      -20.498745829     5.419799257    -8.153561921
 H      -20.293987248     6.853448016   -10.890650691
 H      -21.444742541     3.800885467    -8.909267155
 H      -22.575987495     1.906004458    -9.920434678
 H      -22.311915579     3.865880169   -13.796949516
 H      -21.187699340     5.745941330   -12.740295078
 H      -13.087195098    13.056745752     1.325781263
 H      -14.225839197    12.137355689     0.323037662
 H      -12.354088679    10.149879787     0.682686311
 H      -11.943223195    11.098622245     2.098222134
 H      -13.632796749     9.866374646     3.129174788
 H      -14.720621146    11.057387508     2.393788731
 H        2.266673368    -1.030055846     0.038919046
 H        2.272936757     0.542947742     0.873312320
 H        2.276160698     0.475757470    -0.909821987
 H      -22.988855746    -1.182355513   -12.650314980
 H      -22.560235919    -0.434618725   -11.091321550
 H      -21.463838528    -0.275029063   -12.485264082
 H      -25.216928533     1.188249662   -10.996697459
 H      -25.705874658     2.173069439   -12.396245804
 H      -25.725706129     0.394246211   -12.509647517
 H      -22.354876676     1.465813630   -14.961796496
 H      -23.854674928     0.508487715   -15.031182621
 H      -23.940562284     2.282851664   -14.925676390
 H      -19.459313358    12.004524283    -5.391780336
 H      -18.162435708    13.220136052    -5.560748059
 H      -19.070017890    12.672964914    -6.993955634
 H      -15.290443111    10.763049578    -7.645027864
 H      -16.378918937    11.980207258    -8.358102602
 H      -15.421125449    12.381575675    -6.910294434
 H       -4.046354212    12.676974194     2.369722305
 H       -2.511659295    13.314047007     1.733102485
 H       -3.999552208    14.286494196     1.599026483
 H       -3.325929040    13.001055761    -2.464838424
 H       -3.643761067    14.489758675    -1.539331386
 H       -2.103189533    13.619606821    -1.325427759
 H       -0.275512168    -0.363461761    -2.449851980
 H       -0.266090887    -1.915754063    -1.573536967
 H       -1.725989649    -0.892804166    -1.564396747
 H       -0.268488723    -0.370236188     2.449003261
 H       -1.712271270    -0.923800278     1.566247554
 H       -0.236116491    -1.921182243     1.571280558

