139   

Si        0.000000000     0.000000000     0.000000000
 C        1.869404384     0.000000000     0.000000000
 C       -0.621767617     1.738535637     0.000000000
 C       -0.007757068     2.704234296     0.806108219
 C       -0.469314063     4.019673721     0.813582166
 C       -1.557588155     4.399733856     0.022636503
 C       -2.173174337     3.431005735    -0.780160281
 C       -1.712491561     2.116368581    -0.791741899
 C       -2.075079767     5.763960520    -0.001851097
 C       -1.576495159     6.785063350     0.715617112
 C       -2.095961586     8.148670994     0.689305426
 C       -1.479746603     9.120129408     1.489721690
 C       -1.940588175    10.434208273     1.497385605
 C       -3.036781028    10.805215581     0.709329998
 C       -3.654515175     9.837775451    -0.089719430
 C       -3.185676414     8.524555914    -0.101000000
Si       -3.653592001    12.541985544     0.713133378
 C       -5.396169984    12.544049902     0.148960145
 C       -5.862196833    13.192401861    -0.926260986
 C       -7.264098460    13.172034850    -1.348706290
 C       -7.636042372    13.891548378    -2.495166336
 C       -8.948294894    13.904136195    -2.935761606
 C       -9.944769898    13.210422542    -2.216627233
 C       -9.575326973    12.482242965    -1.074443240
 C       -8.246154205    12.451212556    -0.666360462
 N      -11.270097091    13.251500139    -2.704110421
 C      -11.798846665    14.598012265    -3.010476993
 C      -12.247962007    12.376798792    -2.037574706
 C      -11.426524245    15.707527482    -2.012291934
 C      -11.897417106    15.397513120    -0.580747761
 N      -11.512175986    16.429568675     0.401011363
 C      -10.121034948    16.650122282     0.542175697
 C       -9.265284614    15.537126817     0.670537138
 C       -7.898731652    15.713703476     0.810539270
 C       -7.338070695    16.997894831     0.876651677
 C       -8.192031136    18.098668892     0.779040368
 C       -9.563881178    17.937262753     0.620283497
 C      -12.362995693    17.628932514     0.320680503
 C       -5.887039087    17.134001484     1.024940773
 C       -5.255055847    18.312829061     1.097539969
Si       -3.452496942    18.571713733     1.282396407
 C       -3.168900186    19.510268984     2.845836598
 C       -4.120597359    19.478684815     3.870483009
 C       -3.910186315    20.186369090     5.053255770
 C       -2.743456273    20.932666959     5.241287308
 C       -1.790018151    20.958376786     4.214554621
 C       -1.998286264    20.255703153     3.030305860
 C       -2.481130977    21.688315338     6.462009843
 C       -3.311045187    21.746433681     7.517369582
 C       -3.050775378    22.501306045     8.738858604
 C       -1.886942815    23.251454053     8.928910214
 C       -1.679700670    23.957966775    10.113263690
 C       -2.629963118    23.922808558    11.139300566
 C       -3.796740186    23.171133404    10.951570100
 C       -4.004620328    22.472724756     9.764824061
Si       -2.359598804    24.856722446    12.708989326
 C       -0.528947821    25.035970406    13.043636864
 C       -3.137674955    26.545940896    12.528450696
 C       -3.148671927    23.944377129    14.137362832
 C       -2.514694663    16.962432472     1.385628081
 C       -2.857710919    19.559758440    -0.187959738
 C       -3.615384740    13.259200076     2.437335450
 C       -2.573841327    13.551304143    -0.428827958
 C       -0.606885321    -0.911909066    -1.514742489
 C       -0.634373557    -0.849084562     1.539031864
 H        0.845813598     2.467326291     1.447384546
 H        0.028428568     4.752927219     1.445961178
 H       -3.021996518     3.705218683    -1.404042464
 H       -2.232034177     1.405717805    -1.440288710
 H       -2.930345609     5.916235631    -0.667194010
 H       -0.721426040     6.633707707     1.380959137
 H       -0.629889987     8.847480985     2.112706050
 H       -1.419206041    11.149245960     2.139714695
 H       -4.514913283    10.072382303    -0.725584127
 H       -3.681657419     7.790200950    -0.733402204
 H       -6.065164003    11.945560704     0.788533091
 H       -5.221438436    13.797825846    -1.581247606
 H       -6.881301574    14.450070336    -3.050268424
 H       -9.214453896    14.445733476    -3.839752002
 H      -10.314534783    11.935550820    -0.497932658
 H       -7.979939863    11.865605065     0.215310830
 H      -13.176483261    12.354944901    -2.634468141
 H      -12.501266293    12.677012234    -1.008969961
 H      -11.860513404    11.341742122    -2.021074124
 H      -13.423361743    17.324554273     0.313259615
 H      -12.173956503    18.254185075    -0.565974042
 H      -12.213823485    18.240189371     1.229392894
 H       -9.673734457    14.528454282     0.643521408
 H       -7.251797383    14.834677128     0.874096240
 H       -7.784853133    19.109810888     0.826633039
 H      -10.188494383    18.820731629     0.539899038
 H       -5.361756433    16.170881604     1.070110818
 H       -5.818406966    19.259856790     1.045759966
 H       -5.052631518    18.909986798     3.779961675
 H       -4.667819188    20.150292268     5.834263547
 H       -0.875001488    21.533922065     4.341042548
 H       -1.220975567    20.314832617     2.263910618
 H       -1.529865480    22.228358361     6.470589609
 H       -4.262404185    21.205880801     7.508255232
 H       -1.129338820    23.291232842     8.148224524
 H       -0.750790787    24.528200229    10.201872578
 H       -4.574163158    23.106028433    11.717816205
 H       -4.919063663    21.896141118     9.636994949
 H      -11.409130602    14.871967124    -4.021082192
 H      -12.903771196    14.538231590    -3.115899726
 H      -10.326073561    15.861236348    -2.008143528
 H      -11.854760115    16.666853303    -2.355626249
 H      -13.001831201    15.275923332    -0.549525103
 H      -11.468453945    14.426575171    -0.237917601
 H        2.269431481    -1.028632506    -0.040363360
 H        2.279113285     0.479522924     0.906117958
 H        2.268452050     0.546488325    -0.873904001
 H       -0.347301085    25.536799586    14.011253861
 H       -0.026288348    25.634054166    12.263565810
 H       -0.031285320    24.049988574    13.081729526
 H       -2.692567356    27.105502365    11.686040659
 H       -4.222900002    26.470414510    12.335409606
 H       -3.001724240    27.151843207    13.441406170
 H       -2.765986069    22.910201091    14.211102489
 H       -2.935959700    24.446230514    15.098054281
 H       -4.245999284    23.886722956    14.031161054
 H       -2.885208926    16.330088347     2.213518815
 H       -2.607847388    16.382124171     0.450101879
 H       -1.438498367    17.136604332     1.564103795
 H       -3.335120026    20.555667972    -0.222609626
 H       -1.765425696    19.715187889    -0.159711819
 H       -3.096781315    19.045802503    -1.136436121
 H       -4.177571960    12.626279479     3.147885911
 H       -2.583324991    13.349823011     2.818345052
 H       -4.070431956    14.267292467     2.463513418
 H       -2.520239177    13.093661492    -1.433717015
 H       -2.958370704    14.580127321    -0.550069296
 H       -1.539776021    13.620593160    -0.046983188
 H       -0.312738569    -0.389565944    -2.442928299
 H       -0.185382444    -1.932001225    -1.561111050
 H       -1.706721745    -1.010120137    -1.519366231
 H       -0.287504808    -0.336445710     2.454104020
 H       -1.739049611    -0.858062189     1.565932743
 H       -0.290500222    -1.896983114     1.591846266

