139   

Si        0.000000000     0.000000000     0.000000000
 C        1.869062280     0.000000000     0.000000000
 C       -0.657567755     1.724973764     0.000000000
 C        0.189590667     2.833942484    -0.078722062
 C       -0.332493073     4.127683519    -0.076930295
 C       -1.710757277     4.341385979     0.003149678
 C       -2.558940579     3.228184676     0.080843438
 C       -2.041104072     1.936129191     0.078416520
 C       -2.302386790     5.674938099     0.008299042
 C       -1.605794632     6.822071646    -0.061713451
 C       -2.203638687     8.152965679    -0.056117775
 C       -1.363576741     9.272130678    -0.134331463
 C       -1.891025504    10.561260357    -0.132099873
 C       -3.273282111    10.759862410    -0.033782110
 C       -4.112893693     9.644344811     0.049914927
 C       -3.583574557     8.355009478     0.035798463
Si       -3.993037803    12.459649944    -0.029010750
 C       -5.729123196    12.320270902     0.531581450
 C       -6.800503250    12.687540285    -0.183386357
 C       -8.180625309    12.564866518     0.290051599
 C       -9.220859900    12.985521076    -0.554070332
 C      -10.542754422    12.891319143    -0.155132217
 C      -10.866215810    12.329269923     1.096845771
 C       -9.830896650    11.905669513     1.942371262
 C       -8.504952829    12.042189261     1.542647917
 N      -12.239716062    12.260884042     1.448192354
 C      -13.084860705    11.482942610     0.523143309
 C      -12.531297224    12.000069909     2.866460452
 C      -13.051807622     9.950772583     0.700487932
 C      -11.710270006     9.327301407     0.270651354
 N      -11.419938907     9.621941557    -1.146101903
 C      -10.063449046     9.523055183    -1.549555477
 C       -9.036729878     9.041335362    -0.721712783
 C       -7.731648388     8.976811060    -1.195142959
 C       -7.402799339     9.420162675    -2.481377880
 C       -8.426976956     9.921274962    -3.293910844
 C       -9.736138693     9.979541285    -2.841655497
 C      -12.351744739     8.979995529    -2.098011531
 C       -6.011739200     9.330731326    -2.933551897
 C       -5.590725993     9.725713804    -4.141981147
Si       -3.865802026     9.635751021    -4.755827711
 C       -3.881931040     8.560521274    -6.256772163
 C       -4.635245674     7.378698758    -6.244303312
 C       -4.664572475     6.550331776    -7.362453893
 C       -3.939388602     6.877397074    -8.516529566
 C       -3.186914867     8.054740229    -8.523828720
 C       -3.157295298     8.888509593    -7.405699904
 C       -4.002436220     5.976587332    -9.662802908
 C       -3.360069130     6.171754785   -10.826979364
 C       -3.424602325     5.269427113   -11.972085281
 C       -4.177869820     4.092074317   -11.963016560
 C       -4.211199984     3.258332323   -13.080167107
 C       -3.497649473     3.588904414   -14.237325820
 C       -2.742988648     4.768528651   -14.249434742
 C       -2.705124887     5.595386187   -13.129325965
Si       -3.541795676     2.485062236   -15.716348038
 C       -5.186435996     1.599877273   -15.804977338
 C       -3.312171423     3.491507634   -17.275272157
 C       -2.159649107     1.237125261   -15.559713695
 C       -3.295438232    11.363903224    -5.179715648
 C       -2.714144328     8.876950831    -3.504255797
 C       -3.060280322    13.542294736     1.173702571
 C       -3.892456290    13.168832834    -1.751884925
 C       -0.619206242    -0.870986738    -1.533111857
 C       -0.614282624    -0.880047350     1.530345172
 H        1.276300784     2.730542468    -0.143144440
 H        0.348903748     4.974493497    -0.138911348
 H       -3.636056546     3.372539945     0.143127528
 H       -2.751739851     1.107149014     0.140166711
 H       -3.394817304     5.689311013     0.073616524
 H       -0.514367222     6.808982148    -0.128422069
 H       -0.286096606     9.135016092    -0.200736080
 H       -1.188809140    11.395981096    -0.202085105
 H       -5.201795682     9.746009971     0.131877291
 H       -4.257184217     7.502371441     0.101478443
 H       -5.837089074    11.903561227     1.545612122
 H       -6.727687808    13.102389648    -1.197877436
 H       -8.986856397    13.393640748    -1.537646776
 H      -11.337743111    13.238129814    -0.811953081
 H      -10.049081981    11.468925601     2.911069686
 H       -7.714225127    11.714511656     2.218482284
 H      -13.615933272    12.109926466     3.036125257
 H      -12.026323386    12.766475680     3.482305317
 H      -12.222645671    11.004880839     3.222017620
 H      -13.263063117     8.620588473    -1.598238333
 H      -11.903241860     8.125830872    -2.631091735
 H      -12.655714777     9.736572691    -2.843953151
 H       -9.248736806     8.693528834     0.284161634
 H       -6.953584711     8.577637890    -0.543637550
 H       -8.197424860    10.278112152    -4.298632161
 H      -10.514958611    10.387210897    -3.480657287
 H       -5.333231772     8.910064768    -2.177714175
 H       -6.292843756    10.147853489    -4.878827532
 H       -5.221764054     7.074078580    -5.370936083
 H       -5.257316150     5.637906420    -7.337300462
 H       -2.614791483     8.331496617    -9.407129959
 H       -2.552265099     9.796561683    -7.470440795
 H       -4.630107719     5.092546071    -9.515176633
 H       -2.731732840     7.054781140   -10.975580531
 H       -4.746579711     3.814569761   -11.077204714
 H       -4.816543046     2.350308256   -13.011178128
 H       -2.165956595     5.078684647   -15.124914713
 H       -2.110757144     6.506827762   -13.157316399
 H      -14.128769343    11.848717706     0.655305020
 H      -12.791512886    11.729677955    -0.525794329
 H      -13.248324321     9.681520804     1.754623626
 H      -13.884546195     9.511521450     0.120076135
 H      -10.899892650     9.777380802     0.895049715
 H      -11.718658904     8.235624076     0.479105358
 H        2.266231064    -1.030962476    -0.004531043
 H        2.273552181     0.505718051     0.894918171
 H        2.275353972     0.513189706    -0.889782838
 H       -5.264498897     0.994684885   -16.725531390
 H       -6.026766778     2.317541207   -15.806998157
 H       -5.331521764     0.918367936   -14.948718028
 H       -4.072224355     4.290256241   -17.349828034
 H       -2.318703978     3.971680412   -17.310649014
 H       -3.405113946     2.859145148   -18.175965681
 H       -2.273229158     0.624713603   -14.647129311
 H       -2.138003088     0.549633495   -16.423281584
 H       -1.174324121     1.733626780   -15.502130915
 H       -3.923421291    11.816278098    -5.967011784
 H       -3.341552180    12.024945857    -4.294773800
 H       -2.251421327    11.366788084    -5.538360791
 H       -3.003571403     7.837803575    -3.260709006
 H       -1.674374211     8.847786426    -3.875089244
 H       -2.711946763     9.448447920    -2.554925816
 H       -3.055833536    13.105422808     2.188594814
 H       -2.009076737    13.680148204     0.867017252
 H       -3.520106753    14.544406864     1.247683669
 H       -4.548825575    12.609182119    -2.445983957
 H       -4.211559584    14.225934509    -1.771294940
 H       -2.864082201    13.121456316    -2.150231326
 H       -0.267638262    -0.363357081    -2.450027431
 H       -0.264385121    -1.915764523    -1.573878410
 H       -1.722748573    -0.890828253    -1.570396288
 H       -0.272266979    -0.368524547     2.448520521
 H       -1.717383566    -0.915272528     1.564319636
 H       -0.246006329    -1.920169595     1.571342144

