139   

Si        0.000000000     0.000000000     0.000000000
 C        1.869445413     0.000000000     0.000000000
 C       -0.640902655     1.731645673     0.000000000
 C        0.152915955     2.793711634     0.444993984
 C       -0.339547357     4.098456525     0.441409100
 C       -1.637472299     4.371009621     0.001376264
 C       -2.433284462     3.305340736    -0.439638206
 C       -1.943197273     2.002011617    -0.440201560
 C       -2.194491534     5.719211243    -0.020028587
 C       -1.537893187     6.824537174     0.371645182
 C       -2.099692085     8.170837626     0.348224849
 C       -1.308407515     9.242015528     0.784763397
 C       -1.805612158    10.543113036     0.778939647
 C       -3.111408443    10.799633361     0.344491251
 C       -3.905442189     9.731354626    -0.084795422
 C       -3.404201539     8.430521898    -0.080181044
Si       -3.794813882    12.513704653     0.326635245
 C       -5.616900418    12.377275324     0.225372051
 C       -6.373003358    12.876919712    -0.760640500
 C       -7.831268032    12.752658117    -0.816103734
 C       -8.513817951    13.319360114    -1.902481873
 C       -9.893257016    13.229561920    -2.002034022
 C      -10.624468609    12.518157967    -1.031738681
 C       -9.947322321    11.945136533     0.053549947
 C       -8.568062982    12.082236713     0.163627858
 N      -12.036662961    12.467206954    -1.196812999
 C      -12.506383729    11.766996843    -2.407798418
 C      -12.805171087    12.139741433     0.014288246
 C      -12.658172062    10.233223750    -2.316378121
 C      -11.463262051     9.446050833    -2.889603270
 N      -10.365907674     9.359374510    -1.907566956
 C       -9.048859018     9.491057815    -2.378948376
 C       -8.758055575    10.441166281    -3.381989983
 C       -7.466745351    10.585971727    -3.859478857
 C       -6.409615198     9.827557681    -3.334314645
 C       -6.693596745     8.911604029    -2.319472094
 C       -7.985309696     8.746931244    -1.834476062
 C      -10.604634528     8.343042355    -0.871346627
 C       -5.064308580    10.021395796    -3.876663666
 C       -3.979036174     9.357608543    -3.457455046
Si       -2.286790317     9.582336125    -4.119718942
 C       -2.319379944    10.862766181    -5.449006682
 C       -2.041306874    10.552606681    -6.782724629
 C       -2.074533748    11.544437285    -7.763481067
 C       -2.394630672    12.863960152    -7.434227343
 C       -2.678336016    13.172695758    -6.096632107
 C       -2.642193519    12.185997619    -5.116053416
 C       -2.441528748    13.933291789    -8.426025645
 C       -2.191737372    13.773128793    -9.736733531
 C       -2.238728541    14.842734399   -10.728298577
 C       -2.555320064    16.163502981   -10.398476861
 C       -2.588657038    17.154712589   -11.378737594
 C       -2.299526191    16.847625476   -12.712592173
 C       -1.982401150    15.524715831   -13.045640935
 C       -1.956039208    14.535457758   -12.065758463
Si       -2.342823453    18.157753150   -14.012745915
 C       -1.922370077    19.818810709   -13.264709266
 C       -1.101527893    17.767081235   -15.355088563
 C       -4.064186946    18.208668301   -14.738088574
 C       -1.143116865    10.147729429    -2.759282371
 C       -1.698916694     7.932857677    -4.770093761
 C       -3.344363652    13.409131927     1.901850015
 C       -3.098511929    13.413061114    -1.154666562
 C       -0.604938185    -0.893838983    -1.526444126
 C       -0.630461805    -0.861150973     1.533619704
 H        1.175608932     2.643729600     0.802112333
 H        0.300789151     4.907461520     0.788963497
 H       -3.447253020     3.495380702    -0.787130556
 H       -2.609967265     1.212309997    -0.797292100
 H       -3.222170535     5.782910308    -0.390833263
 H       -0.510738130     6.762003125     0.741540070
 H       -0.293561866     9.058595436     1.130881292
 H       -1.143674076    11.339853063     1.127615598
 H       -4.933657809     9.879472006    -0.441251162
 H       -4.042122789     7.612865083    -0.411163970
 H       -6.069496608    11.835623767     1.071215450
 H       -5.952253461    13.415286651    -1.620464283
 H       -7.955357891    13.846237137    -2.675927669
 H      -10.415996961    13.704682577    -2.828272557
 H      -10.487936513    11.373993019     0.801110084
 H       -8.058810581    11.633034916     1.016701120
 H      -13.879152970    12.279938646    -0.193927016
 H      -12.528757999    12.851622430     0.813201259
 H      -12.652783066    11.116907979     0.393487040
 H      -11.659632331     8.367462386    -0.552699268
 H       -9.995319317     8.584623439     0.019464696
 H      -10.367741244     7.317869484    -1.201839654
 H       -9.547413300    11.080259831    -3.769199353
 H       -7.268971049    11.314668700    -4.646554342
 H       -5.891951246     8.305984378    -1.894330515
 H       -8.157155200     8.026632973    -1.042323040
 H       -5.025173758    10.777396188    -4.673682707
 H       -4.041337267     8.603199433    -2.657663386
 H       -1.789175571     9.537327326    -7.100942560
 H       -1.849574875    11.278077099    -8.794420698
 H       -2.929182822    14.194699412    -5.820042862
 H       -2.872065509    12.485104477    -4.087872111
 H       -2.702198215    14.917256531    -8.025284260
 H       -1.930583701    12.789138576   -10.137473092
 H       -2.779555519    16.429942697    -9.367158129
 H       -2.843550292    18.168896660   -11.058939022
 H       -1.747291963    15.225382151   -14.070755797
 H       -1.709445918    13.512659469   -12.345022341
 H      -13.499555495    12.214717800    -2.652830508
 H      -11.832105650    12.030534555    -3.252924120
 H      -12.835331918     9.932423290    -1.267043594
 H      -13.570071379     9.932685220    -2.867338109
 H      -11.801401883     8.424507954    -3.182925491
 H      -11.113370783     9.926744903    -3.829720802
 H        2.267930163    -1.028282332    -0.064991366
 H        2.279127684     0.454038274     0.919339666
 H        2.270019187     0.565413373    -0.860791622
 H       -1.871404407    20.603980816   -14.039918876
 H       -0.941973897    19.791217771   -12.755363961
 H       -2.675412981    20.136619371   -12.522608354
 H       -0.084601186    17.652527270   -14.937784156
 H       -1.351764835    16.831654537   -15.885228315
 H       -1.061781642    18.573106376   -16.109222391
 H       -4.818894438    18.444927003   -13.966507528
 H       -4.145122114    18.973363243   -15.530341933
 H       -4.342170963    17.235967451   -15.182211781
 H       -1.415116948    11.151753817    -2.387481555
 H       -1.184953815     9.460036295    -1.891686343
 H       -0.095779330    10.190707754    -3.104090470
 H       -2.382717355     7.530770844    -5.538391188
 H       -0.692836344     8.010400320    -5.217996736
 H       -1.641576644     7.186006179    -3.956214453
 H       -3.688344514    12.853795155     2.793024464
 H       -2.253403713    13.546031601     1.996356566
 H       -3.809761500    14.410774424     1.938092287
 H       -3.409312634    12.919410944    -2.094984455
 H       -3.449030569    14.459488183    -1.191882101
 H       -1.994722317    13.430995015    -1.135575511
 H       -0.303454658    -0.361057851    -2.446672103
 H       -0.189211374    -1.915526043    -1.582859848
 H       -1.705175585    -0.983279052    -1.539981322
 H       -0.282933140    -0.352644599     2.451128103
 H       -1.734730868    -0.873783226     1.563287830
 H       -0.282553922    -1.908044252     1.579710572

