139   

Si        0.000000000     0.000000000     0.000000000
 C        1.869773807     0.000000000     0.000000000
 C       -0.657408728     1.723451188     0.000000000
 C        0.151889639     2.822890084    -0.301125049
 C       -0.375498504     4.114294090    -0.292600322
 C       -1.724605704     4.332964601    -0.001154109
 C       -2.534481494     3.229472360     0.294800406
 C       -2.008242291     1.941209274     0.298999831
 C       -2.322281043     5.663569651     0.020124020
 C       -1.654765316     6.801944315    -0.233037931
 C       -2.250227040     8.133036511    -0.212311948
 C       -3.600416146     8.347469097     0.079753741
 C       -4.127957954     9.636886289     0.088487503
 C       -3.314046157    10.744320185    -0.183004899
 C       -1.962476630    10.532240980    -0.472856443
 C       -1.439196558     9.240812760    -0.490159476
Si       -4.048533860    12.436119236    -0.162227062
 C       -5.026128509    12.683022477     1.368810765
 C       -5.180995744    11.763656051     2.330086598
 C       -5.961322584    11.961907853     3.551299864
 C       -6.035297159    10.905414471     4.473394550
 C       -6.758082690    11.033689195     5.646066751
 C       -7.475352311    12.219996808     5.910182016
 C       -7.403350372    13.278073118     4.990638708
 C       -6.633769677    13.150284033     3.838601703
 N       -8.198354367    12.302435136     7.122175190
 C       -9.089979229    11.154683160     7.402831583
 C       -8.810801959    13.603242763     7.437866044
 C       -9.823860340    10.555488090     6.190042495
 C      -10.687811243    11.590410946     5.449083505
 N      -11.394639270    11.034012632     4.282852182
 C      -10.608497977    10.612179462     3.190307067
 C       -9.484315048    11.370200540     2.802354855
 C       -8.699329676    10.972846348     1.731999888
 C       -9.024288830     9.837193422     0.975933415
 C      -10.155540495     9.104472823     1.343837282
 C      -10.943331147     9.480118958     2.425212630
 C      -12.522674788    10.168003236     4.663886807
 C       -8.166801608     9.451760545    -0.148435634
 C       -8.399473289     8.384778603    -0.923915359
Si       -7.417036117     7.792678433    -2.350936858
 C       -6.831637020     6.080777712    -1.979987955
 C       -6.882735188     5.559917422    -0.683319335
 C       -6.435995352     4.264388103    -0.421818849
 C       -5.928542564     3.464543265    -1.448800881
 C       -5.870635667     3.992047083    -2.746027185
 C       -6.309219166     5.286635643    -3.008933745
 C       -5.448386970     2.104278730    -1.231146108
 C       -5.441825237     1.468574393    -0.047151713
 C       -4.957456050     0.106319793     0.153376937
 C       -4.447725476    -0.671788516    -0.890023856
 C       -3.994822642    -1.969633555    -0.656424447
 C       -4.020878054    -2.511912052     0.632817135
 C       -4.523438406    -1.731290740     1.681522868
 C       -4.987818154    -0.440150740     1.443075545
Si       -3.420879544    -4.231088821     0.941889380
 C       -2.094557661    -4.672358708    -0.299578821
 C       -2.697780901    -4.346381566     2.662148487
 C       -4.866246798    -5.401614879     0.775082687
 C       -8.569406466     7.742949982    -3.824595917
 C       -5.950794614     8.865842870    -2.758005019
 C       -2.722715373    13.747868165    -0.240041911
 C       -5.202533187    12.600258671    -1.623788358
 C       -0.630016750    -0.868439071    -1.529868104
 C       -0.612718188    -0.879877097     1.530621461
 H        1.211597767     2.712748895    -0.543818521
 H        0.276841079     4.954411773    -0.522042405
 H       -3.591266177     3.377090371     0.516877792
 H       -2.690561050     1.118552224     0.541569463
 H       -3.391756216     5.681628194     0.254477909
 H       -0.588496713     6.780406107    -0.474601074
 H       -4.253893158     7.502743026     0.297755101
 H       -5.195805164     9.739205170     0.316467722
 H       -1.278938358    11.356682436    -0.690892773
 H       -0.385671019     9.094879752    -0.720273531
 H       -5.495794489    13.675391164     1.444904439
 H       -4.708295318    10.770419360     2.286206166
 H       -5.508301559     9.971864635     4.268773671
 H       -6.772804291    10.221609913     6.368540036
 H       -7.939239239    14.205523638     5.163869569
 H       -6.576409337    13.990790366     3.145966502
 H       -9.178372013    13.584320884     8.478738818
 H       -9.645086489    13.885960686     6.777630218
 H       -8.036794845    14.391055323     7.392459252
 H      -13.084213148    10.631642053     5.492217163
 H      -12.219755083     9.154920365     4.973332540
 H      -13.221258076    10.088639537     3.810652681
 H       -9.211690623    12.267133949     3.355827168
 H       -7.814055897    11.561469088     1.475861282
 H      -10.436408766     8.215540180     0.776804158
 H      -11.808457615     8.875144749     2.674360110
 H       -7.312779580    10.123970676    -0.298793272
 H       -9.278858156     7.742746759    -0.739217628
 H       -7.269693279     6.142255083     0.159309066
 H       -6.488327380     3.879900514     0.594820669
 H       -5.470350661     3.387528824    -3.557960993
 H       -6.230365739     5.647456847    -4.038221404
 H       -5.068832280     1.607277551    -2.130116130
 H       -5.821662335     1.958736070     0.853432638
 H       -4.405007072    -0.269151595    -1.901095293
 H       -3.618624238    -2.533564848    -1.514814899
 H       -4.567418648    -2.101425439     2.709356566
 H       -5.377158177     0.149426494     2.271173162
 H       -8.451512338    10.364229642     7.867823290
 H       -9.827085727    11.448179733     8.181369937
 H       -9.094333580    10.116422300     5.477043283
 H      -10.448551070     9.707868193     6.526960127
 H      -11.443676992    12.031697825     6.135815034
 H      -10.055685711    12.440748027     5.100541058
 H        2.268660370    -1.027687262     0.064105367
 H        2.270902128     0.565206894     0.860256981
 H        2.277352912     0.455364971    -0.919395325
 H       -1.660085161    -5.664544464    -0.084067020
 H       -1.269474723    -3.936251602    -0.279421647
 H       -2.490223457    -4.702744296    -1.329617905
 H       -1.900760867    -3.594914221     2.811826400
 H       -3.462854352    -4.181002944     3.440507430
 H       -2.254229056    -5.341555072     2.843007240
 H       -5.309859879    -5.352901660    -0.235705576
 H       -4.560726214    -6.447370850     0.955057677
 H       -5.667163352    -5.159162309     1.496516498
 H       -9.421423814     7.062974790    -3.647420372
 H       -8.983874894     8.744437782    -4.038534835
 H       -8.050922708     7.395306685    -4.734469237
 H       -5.158112506     8.792670830    -1.988403429
 H       -5.488928015     8.564915849    -3.715813911
 H       -6.234226998     9.929682827    -2.845841559
 H       -2.012659984    13.650125798     0.601745282
 H       -2.142562905    13.684408967    -1.177367673
 H       -3.155332197    14.762751346    -0.187913046
 H       -6.030727614    11.869593621    -1.569501637
 H       -5.651766654    13.607612716    -1.672146148
 H       -4.668076830    12.426910365    -2.574746530
 H       -0.290779124    -0.361322305    -2.450047338
 H       -0.281959595    -1.914474612    -1.572795402
 H       -1.736287838    -0.880294927    -1.545310708
 H       -0.284180797    -0.363191420     2.449627709
 H       -1.718491130    -0.919845128     1.551789928
 H       -0.240786100    -1.917717503     1.576020905

