139   

Si        0.000000000     0.000000000     0.000000000
 C        1.870067865     0.000000000     0.000000000
 C       -0.592896802     1.748255103     0.000000000
 C       -0.709522220     2.470796670     1.192087007
 C       -1.158480090     3.791969427     1.183730323
 C       -1.488457443     4.422318302    -0.017388235
 C       -1.363807096     3.699570358    -1.212328641
 C       -0.920566891     2.380480536    -1.205915084
 C       -1.962699912     5.797779151    -0.096780057
 C       -2.148537295     6.639651757     0.934464288
 C       -2.629483170     8.009229079     0.765121027
 C       -2.926790632     8.524624526    -0.501379090
 C       -3.384216442     9.829955801    -0.652860329
 C       -3.549060601    10.660564138     0.463128554
 C       -3.254665105    10.150788919     1.731415366
 C       -2.804891302     8.837845221     1.879943897
Si       -4.159197123    12.372097852     0.164947320
 C       -3.615979463    13.617016469     1.396642612
 C       -4.472468284    14.322614141     2.147037260
 C       -4.092545369    15.327332394     3.143710046
 C       -5.117815328    15.978713156     3.846981128
 C       -4.827455440    16.939347809     4.803196939
 C       -3.491731419    17.293210673     5.053638871
 C       -2.463487344    16.661729144     4.344854491
 C       -2.767186882    15.688108389     3.397031699
 N       -3.287977331    18.295655303     6.059693824
 C       -3.315846450    17.739726207     7.429397081
 C       -2.122637216    19.164663247     5.814071761
 C       -2.090378646    16.880736735     7.790163153
 C       -2.442183720    15.600184354     8.567263454
 N       -2.949845702    14.474994820     7.769061100
 C       -2.132776509    13.915979942     6.776496860
 C       -0.775268500    14.270623395     6.637469496
 C        0.002570800    13.696256725     5.642918603
 C       -0.500252758    12.679048641     4.823868109
 C       -1.837301066    12.299230181     4.987347081
 C       -2.647886642    12.908528178     5.931934129
 C       -4.390485380    14.536372395     7.471563724
 C        0.364489193    12.109026302     3.790342302
 C       -0.011033801    11.134543392     2.952484041
Si        1.034511994    10.391272798     1.645938165
 C        1.170021298     8.590321719     2.037197577
 C        0.633534124     8.093175969     3.229826772
 C        0.727594813     6.737700330     3.539292441
 C        1.376658762     5.853247732     2.674252734
 C        1.916813973     6.352947860     1.481875478
 C        1.810363892     7.704791774     1.162333381
 C        1.495678356     4.428015504     2.963119037
 C        1.018549671     3.834666772     4.070959598
 C        1.134253705     2.410929899     4.365505709
 C        1.767266203     1.515143333     3.500365333
 C        1.858029549     0.160014187     3.817029387
 C        1.298050526    -0.332674825     4.999302776
 C        0.654059862     0.561569423     5.865163318
 C        0.574849504     1.915634539     5.551151322
Si        1.403251861    -2.121170922     5.443488076
 C        2.216927821    -3.088835769     4.066173991
 C        2.406192872    -2.295173889     7.009580358
 C       -0.328331773    -2.773530445     5.708392564
 C        0.196862206    10.623034279    -0.003536312
 C        2.743680656    11.142237685     1.612529191
 C       -3.508325702    12.984279842    -1.481647807
 C       -6.026109246    12.272027738     0.104030955
 C       -0.620171068    -0.898722583    -1.518585297
 C       -0.643438961    -0.869807896     1.522846793
 H       -0.463531923     2.031711967     2.165626417
 H       -1.239373682     4.334014065     2.125381796
 H       -1.615806622     4.172944612    -2.159087483
 H       -0.846593658     1.869230624    -2.168955018
 H       -2.175833079     6.131283457    -1.119531749
 H       -1.931995501     6.337969183     1.961578245
 H       -2.802595263     7.904577221    -1.387962489
 H       -3.600147396    10.165442569    -1.671520881
 H       -3.375233980    10.757547343     2.633719987
 H       -2.580043557     8.455550566     2.874479195
 H       -2.526448322    13.751350997     1.481451109
 H       -5.562429855    14.193953002     2.077205056
 H       -6.158159728    15.724317833     3.645523293
 H       -5.624299935    17.443759125     5.347147014
 H       -1.424333792    16.919882319     4.531227176
 H       -1.954410369    15.194433806     2.861473526
 H       -2.180039790    20.026017367     6.501700744
 H       -2.179400564    19.560702065     4.784853862
 H       -1.144696188    18.678758100     5.947254738
 H       -4.926419920    15.111411187     8.242645186
 H       -4.806510532    13.512053162     7.488922157
 H       -4.605563092    14.987360026     6.485278864
 H       -0.319719721    14.998516906     7.300339657
 H        1.035371872    14.025600090     5.523922346
 H       -2.259579778    11.514896514     4.356883078
 H       -3.685025871    12.598918209     6.016226337
 H        1.366031634    12.557304912     3.768403834
 H       -1.027249878    10.708222637     2.991515655
 H        0.130175450     8.739802528     3.956355980
 H        0.296015284     6.375571833     4.470342153
 H        2.415474020     5.676813827     0.789798028
 H        2.237861160     8.036786832     0.212835516
 H        2.008677146     3.845322210     2.191545520
 H        0.504526152     4.419368522     4.839128610
 H        2.214560533     1.878301129     2.575452958
 H        2.380687418    -0.489971501     3.108907278
 H        0.198244461     0.233241742     6.803165040
 H        0.072913040     2.595244634     6.237061972
 H       -3.406204826    18.599274418     8.130375182
 H       -4.256571435    17.156676091     7.536185704
 H       -1.549726802    16.607619171     6.859589239
 H       -1.373016560    17.479435109     8.380359330
 H       -1.533660790    15.233734015     9.106319987
 H       -3.186924153    15.827207264     9.363435497
 H        2.269285681    -1.029059791     0.003419010
 H        2.276870338     0.521351861     0.884208820
 H        2.268371364     0.509934599    -0.895238607
 H        2.252053888    -4.166900752     4.304236366
 H        3.255815115    -2.755522102     3.894616617
 H        1.666217033    -2.977942812     3.114498146
 H        3.429688134    -1.899994321     6.875953524
 H        1.947240664    -1.741893621     7.848113888
 H        2.494823605    -3.352310842     7.315909832
 H       -0.943956036    -2.655460648     4.798089878
 H       -0.318271086    -3.846903703     5.966986035
 H       -0.843401341    -2.239083685     6.525953024
 H       -0.797838651    10.132304565    -0.013656066
 H        0.038226943    11.691899242    -0.230199732
 H        0.787074521    10.185148876    -0.826102703
 H        3.261989024    11.005323050     2.578936736
 H        3.372191456    10.674838733     0.833984381
 H        2.703819362    12.225516103     1.402629073
 H       -2.407040699    12.911713987    -1.529586676
 H       -3.920548457    12.407902947    -2.326924725
 H       -3.778076166    14.043913911    -1.642551324
 H       -6.445032425    11.943459371     1.071976971
 H       -6.476750287    13.248137321    -0.146867687
 H       -6.360409742    11.546330786    -0.659010656
 H       -0.198400594    -0.476670820    -2.446876780
 H       -0.346467085    -1.968063325    -1.488584819
 H       -1.720846031    -0.840943903    -1.595369999
 H       -0.299551846    -0.371474287     2.449589752
 H       -1.747977771    -0.872673407     1.544661996
 H       -0.305305257    -1.919251002     1.566275746

