139   

Si        0.000000000     0.000000000     0.000000000
 C        1.868991056     0.000000000     0.000000000
 C       -0.614609463     1.740791053     0.000000000
 C        0.032211649     2.704862950    -0.782028639
 C       -0.416530925     4.024089964    -0.795517761
 C       -1.519955177     4.410945778    -0.029570385
 C       -2.164873464     3.445832444     0.753922277
 C       -1.717323953     2.126376458     0.770990082
 C       -2.021418222     5.780721531    -0.015432032
 C       -1.491832479     6.796269603    -0.719030121
 C       -1.997429688     8.164524959    -0.701191352
 C       -3.102296163     8.540229035     0.069017744
 C       -3.558116362     9.855553688     0.062227139
 C       -2.928996032    10.827074264    -0.727759696
 C       -1.825988796    10.453567079    -1.501405564
 C       -1.364342026     9.137864021    -1.483892149
Si       -3.579371509    12.555000821    -0.694765989
 C       -5.397309753    12.555515775    -0.938177517
 C       -6.140598102    11.455591883    -1.114157114
 C       -7.589648598    11.441506301    -1.309184134
 C       -8.220519817    10.201463770    -1.479847523
 C       -9.589180276    10.114604539    -1.669166844
 C      -10.396027435    11.269431434    -1.615290598
 C       -9.763835969    12.514660587    -1.429492806
 C       -8.382072857    12.591880637    -1.303838276
 N      -11.787672953    11.178561153    -1.808139532
 C      -12.429560028     9.879038229    -1.538386102
 C      -12.591248339    12.319777756    -1.336063833
 C      -12.341473741     9.437238845    -0.066870765
 C      -12.673152102     7.945040256     0.115781040
 N      -11.531417879     7.017700298    -0.019292746
 C      -10.401384896     7.334603302     0.774348544
 C      -10.599226246     7.523614997     2.157333899
 C       -9.528558688     7.835045077     2.978846438
 C       -8.232150382     7.971742156     2.459646760
 C       -8.036934781     7.757962930     1.093313396
 C       -9.097963367     7.417278569     0.260637340
 C      -11.265641352     6.594395582    -1.401949897
 C       -7.139623904     8.302199632     3.377717320
 C       -5.862852161     8.458855266     3.005113012
Si       -4.482388212     8.872237536     4.138894857
 C       -3.273148329     7.483205374     4.016441367
 C       -3.552335656     6.254507104     4.624285756
 C       -2.644882150     5.200013477     4.536925543
 C       -1.448491643     5.343126773     3.827766966
 C       -1.176739066     6.570216289     3.210089629
 C       -2.079225025     7.627306321     3.299729663
 C       -0.471323572     4.265943262     3.711103418
 C       -0.614692387     3.046317837     4.256339511
 C        0.358828775     1.966169575     4.142788989
 C        1.558604896     2.102366514     3.440338157
 C        2.460272182     1.041011758     3.358525806
 C        2.184829896    -0.177527936     3.985865907
 C        0.983464440    -0.315732911     4.694437511
 C        0.083059815     0.743295647     4.770113408
Si        3.355638196    -1.601925708     3.897685486
 C        4.816112134    -1.188172113     2.806694642
 C        3.954951652    -1.994881218     5.622855929
 C        2.454400010    -3.073610534     3.177915836
 C       -3.711468194    10.485449912     3.602458668
 C       -5.064243576     9.038977466     5.906057038
 C       -3.189311198    13.305341888     0.971592920
 C       -2.805101743    13.580899046    -2.050252357
 C       -0.628814647    -0.841037817    -1.547687763
 C       -0.625597060    -0.913616165     1.502133329
 H        0.900346766     2.462895522    -1.400670487
 H        0.103017759     4.755030669    -1.411692591
 H       -3.020672289     3.729176539     1.365560938
 H       -2.253819390     1.419004184     1.409272910
 H       -2.886915115     5.943000549     0.636766377
 H       -0.625291723     6.635587623    -1.365204752
 H       -3.613193568     7.797166173     0.681173858
 H       -4.428459390    10.092802835     0.686022187
 H       -1.297427839    11.166618132    -2.138780791
 H       -0.503571671     8.866948661    -2.091503965
 H       -5.852040416    13.556936482    -0.926454475
 H       -5.703751280    10.445015888    -1.145663506
 H       -7.624686248     9.286844405    -1.480668675
 H      -10.035189261     9.138378335    -1.833312811
 H      -10.344834343    13.430224743    -1.395031319
 H       -7.916115672    13.570139283    -1.181821182
 H      -13.665568953    12.110587444    -1.465439260
 H      -12.361870006    13.203988287    -1.958681166
 H      -12.411658797    12.571257016    -0.277981614
 H      -12.204403821     6.236740289    -1.858570883
 H      -10.570336526     5.734510010    -1.387116561
 H      -10.839540357     7.377426382    -2.049261226
 H      -11.594517726     7.416606880     2.580436214
 H       -9.700562025     7.977102684     4.045747691
 H       -7.036888210     7.848669118     0.665367425
 H       -8.904696381     7.242824163    -0.793759602
 H       -7.472130351     8.413454381     4.417870698
 H       -5.561397015     8.342664615     1.951326310
 H       -4.475578327     6.079104036     5.183232845
 H       -2.879844196     4.256136550     5.024845945
 H       -0.254661289     6.700389734     2.645163921
 H       -1.812433000     8.559801159     2.792195731
 H        0.417574388     4.514488318     3.122947343
 H       -1.507482937     2.797267332     4.836999321
 H        1.794376896     3.040058595     2.938944939
 H        3.384526750     1.208817447     2.798417142
 H        0.715464313    -1.243936539     5.206298263
 H       -0.844752293     0.618492637     5.324940922
 H      -13.493825908     9.943830208    -1.858494083
 H      -11.968084594     9.119738751    -2.209812783
 H      -11.327611300     9.651020428     0.333949203
 H      -13.023730163    10.050459061     0.549306376
 H      -13.100258905     7.785476164     1.134855971
 H      -13.470030245     7.632566856    -0.593578308
 H        2.267988110    -1.024010382     0.104443781
 H        2.258712913     0.599546002     0.843511608
 H        2.279560379     0.425380070    -0.931306862
 H        5.505612094    -2.046988761     2.722274517
 H        5.396203519    -0.338951917     3.209446424
 H        4.493670669    -0.921592641     1.783998850
 H        4.486565861    -1.134109212     6.067941760
 H        3.116303828    -2.246435838     6.296003534
 H        4.651029060    -2.851890981     5.622424816
 H        2.085194531    -2.854552761     2.159114870
 H        3.114474815    -3.955916375     3.110976972
 H        1.581544790    -3.355659258     3.792216596
 H       -3.237965552    10.409196231     2.605832543
 H       -4.469486759    11.288566506     3.551316102
 H       -2.930134043    10.807996876     4.313727211
 H       -5.558303618     8.119006783     6.264347187
 H       -4.216730033     9.242206129     6.585601525
 H       -5.783613418     9.869769280     6.016432546
 H       -3.656802845    12.730329844     1.792171890
 H       -2.100577891    13.323474026     1.156596106
 H       -3.557565143    14.343682458     1.041325604
 H       -3.004312867    13.143006146    -3.045598858
 H       -3.209671406    14.608699425    -2.056930542
 H       -1.710610884    13.656650295    -1.928266298
 H       -0.279639845    -0.323332530    -2.458352908
 H       -0.284417003    -1.888102202    -1.604081674
 H       -1.733134678    -0.849870326    -1.577524606
 H       -0.326349332    -0.389066957     2.431981094
 H       -1.725388624    -0.998773504     1.504950145
 H       -0.210935911    -1.935218144     1.554958334

