139   

Si        0.000000000     0.000000000     0.000000000
 C        1.869428140     0.000000000     0.000000000
 C       -0.641117018     1.729955018     0.000000000
 C        0.129093762     2.787320734    -0.494782141
 C       -0.367853303     4.090552078    -0.488832850
 C       -1.640627469     4.366196461     0.018062809
 C       -2.413263771     3.304665051     0.507996337
 C       -1.924803683     2.001082374     0.491078634
 C       -2.205894830     5.709532529     0.047157860
 C       -1.588014026     6.816702581    -0.398170358
 C       -2.177277260     8.151198045    -0.357264877
 C       -1.445427639     9.239381137    -0.848896792
 C       -1.978404621    10.527618764    -0.824938000
 C       -3.266554037    10.748233939    -0.329714709
 C       -4.000650864     9.661174254     0.162818114
 C       -3.456010592     8.379990609     0.159431793
Si       -4.048846801    12.416590541    -0.260914720
 C       -5.850513607    12.144917217    -0.451177598
 C       -6.821456541    12.469258769     0.412397229
 C       -8.241400891    12.207556852     0.164780809
 C       -9.190825351    12.580916715     1.124568117
 C      -10.544991659    12.351360857     0.929514897
 C      -11.021088416    11.917824524    -0.325258388
 C      -10.068373943    11.595369088    -1.315934814
 C       -8.710468484    11.705000021    -1.052989983
 N      -12.381973827    11.676442484    -0.557209230
 C      -13.400653241    12.251286902     0.333771768
 C      -12.810765756    11.596457616    -1.964331749
 C      -13.317849323    13.747418147     0.691918567
 C      -13.389669499    14.759618410    -0.466495161
 N      -12.138947975    15.472646489    -0.846449480
 C      -11.145322342    15.581668279     0.151737663
 C      -11.518205755    16.026706472     1.438858898
 C      -10.566362491    16.144105650     2.439394883
 C       -9.208875454    15.915549590     2.177745246
 C       -8.835931039    15.533828024     0.885696956
 C       -9.780880667    15.382417675    -0.120114749
 C      -11.656936437    15.091777140    -2.186718965
 C       -8.236774411    16.050632502     3.264328418
 C       -6.922926135    15.850856709     3.102485025
Si       -5.623019865    15.991460040     4.384775419
 C       -4.874807801    14.298652250     4.433828124
 C       -5.642958778    13.186043907     4.069987239
 C       -5.096762399    11.903178885     4.100614794
 C       -3.766987519    11.704781563     4.484543326
 C       -3.002073398    12.820238148     4.853910455
 C       -3.550610477    14.100711330     4.840324026
 C       -3.146651325    10.385687502     4.533914335
 C       -3.755343287     9.232039459     4.210057534
 C       -3.114164182     7.921413275     4.267026413
 C       -1.785759481     7.757107953     4.672066008
 C       -1.204034705     6.491884603     4.715187615
 C       -1.938815051     5.356976004     4.350679113
 C       -3.266131795     5.518932117     3.939008617
 C       -3.844327911     6.786675879     3.893240719
Si       -1.125621752     3.700462251     4.423680575
 C       -0.436704981     3.451952754     6.145888529
 C       -2.352030813     2.336328755     4.064883760
 C        0.260341498     3.648993783     3.176435158
 C       -4.368844608    17.260279763     3.839353669
 C       -6.308381271    16.425942263     6.062273313
 C       -3.545502905    13.324466836     1.275260231
 C       -3.505557677    13.427935408    -1.743201965
 C       -0.635046181    -0.870737554    -1.525601419
 C       -0.600453138    -0.879817010     1.537798843
 H        1.134013631     2.633944053    -0.896911083
 H        0.248976489     4.896586327    -0.881997248
 H       -3.410151691     3.500023021     0.900037774
 H       -2.575813268     1.211952913     0.877339512
 H       -3.208400479     5.770936875     0.483335215
 H       -0.583530729     6.767144647    -0.825494979
 H       -0.446517867     9.081707859    -1.249563068
 H       -1.360135813    11.341589781    -1.210177007
 H       -5.012287490     9.776065341     0.568620582
 H       -4.038769852     7.554222251     0.564334921
 H       -6.091766463    11.649155956    -1.407218358
 H       -6.623865618    12.956309324     1.376395716
 H       -8.861036490    13.010384737     2.074208301
 H      -11.231900531    12.535780069     1.749338675
 H      -10.381748443    11.231348265    -2.288277893
 H       -8.001024971    11.407346863    -1.827660786
 H      -13.905362946    11.489021694    -2.033048762
 H      -12.376075027    10.686984378    -2.421127237
 H      -12.512381949    12.472319384    -2.562527361
 H      -12.496242158    15.112803381    -2.900708489
 H      -11.179151771    14.097667168    -2.222283076
 H      -10.927943938    15.847409313    -2.534370996
 H      -12.556651353    16.273577716     1.642616340
 H      -10.880032156    16.448191745     3.437861845
 H       -7.785607204    15.346728673     0.648649406
 H       -9.445819793    15.063473752    -1.103453950
 H       -8.685202889    16.333370262     4.223860788
 H       -6.511294755    15.574295634     2.115110100
 H       -6.688589050    13.280395906     3.756228027
 H       -5.715195680    11.053917356     3.813333888
 H       -1.966255734    12.686667973     5.160175116
 H       -2.908097268    14.929901889     5.146517509
 H       -2.102950979    10.387657737     4.863342771
 H       -4.795423008     9.222882996     3.872195844
 H       -1.190611724     8.623093950     4.956734870
 H       -0.160855780     6.429489584     5.037903307
 H       -3.885120907     4.669231667     3.640834462
 H       -4.876837418     6.891905260     3.566223956
 H      -14.406315319    12.031456859    -0.091839262
 H      -13.344131072    11.665235206     1.287845518
 H      -14.147577590    13.965079358     1.396499467
 H      -12.401305342    13.908221693     1.296847963
 H      -13.820233571    14.264130494    -1.362218615
 H      -14.106675527    15.571524945    -0.187860234
 H        2.267798233    -1.027149796     0.079126293
 H        2.270600468     0.578070612     0.851987757
 H        2.278730546     0.440955676    -0.925789317
 H        0.052656795     2.467346128     6.242913209
 H       -1.235562666     3.504562841     6.906897416
 H        0.311809102     4.222888375     6.398857501
 H       -3.190281007     2.345593264     4.782696489
 H       -2.773204301     2.433791313     3.048096579
 H       -1.869676449     1.344670856     4.127103351
 H        0.982298225     4.468929234     3.331956384
 H        0.813773756     2.695321853     3.225027267
 H       -0.131491947     3.747734348     2.143673255
 H       -3.903990374    16.984054709     2.875522939
 H       -4.838265466    18.252235695     3.706596937
 H       -3.557996593    17.374768510     4.579810506
 H       -7.051388541    15.680940809     6.400961257
 H       -5.510797512    16.462412522     6.826129558
 H       -6.804185814    17.413038166     6.052605576
 H       -3.772060476    12.742226717     2.188904200
 H       -2.458742060    13.523781122     1.286612450
 H       -4.063597678    14.296107901     1.363069902
 H       -3.700383566    12.892939532    -2.688763946
 H       -4.046130163    14.389975082    -1.786975234
 H       -2.426333349    13.653076879    -1.703025304
 H       -0.291359461    -0.368047670    -2.447684538
 H       -0.286692091    -1.917605759    -1.566789886
 H       -1.739402770    -0.884576563    -1.551822442
 H       -0.323776879    -0.319167314     2.449544456
 H       -1.697810508    -0.998218327     1.539670117
 H       -0.159019829    -1.888578905     1.619906205

