139   

Si        0.000000000     0.000000000     0.000000000
 C        1.869338124     0.000000000     0.000000000
 C       -0.649263895     1.728157065     0.000000000
 C        0.163479457     2.809785454     0.353243050
 C       -0.342432285     4.109649478     0.348155998
 C       -1.671592279     4.357488623    -0.004468084
 C       -2.485982361     3.271923070    -0.354132578
 C       -1.983523283     1.973474418    -0.350912573
 C       -2.244514291     5.699475716    -0.024159235
 C       -1.574551615     6.822080990     0.287210024
 C       -2.147953243     8.163984393     0.267373089
 C       -3.478187860     8.409659278    -0.085789378
 C       -3.985639181     9.708193218    -0.091458100
 C       -3.168704214    10.791178829     0.250819237
 C       -1.836080528    10.549152576     0.605006098
 C       -1.334224931     9.249891820     0.615600951
Si       -3.841524309    12.509708283     0.242970177
 C       -2.436348712    13.683376373     0.197731728
 C       -2.168609583    14.612749415     1.124638556
 C       -1.034878894    15.536330480     1.057168558
 C       -0.855289345    16.468921286     2.088777252
 C        0.201570724    17.364420803     2.071668050
 C        1.157940716    17.322317072     1.033739411
 C        0.979321057    16.384094901    -0.001734446
 C       -0.112702044    15.526713988     0.006882323
 N        2.226752661    18.234326739     1.024092667
 C        2.743081646    18.686450496     2.328470090
 C        3.291163163    18.003351471     0.032495543
 C        3.314466805    17.542080393     3.184877037
 C        4.232997048    18.036546484     4.314901149
 N        5.438077127    18.788394163     3.890372583
 C        6.009983759    18.357936809     2.669822842
 C        6.378553065    17.000491337     2.559720918
 C        6.942407614    16.525279413     1.388184306
 C        7.183218463    17.381577584     0.302222188
 C        6.840484585    18.729430795     0.426110916
 C        6.272362583    19.222459039     1.595973722
 C        5.312496374    20.242979635     4.078460787
 C        7.781875091    16.828485731    -0.914782658
 C        8.053927603    17.553155072    -2.007440601
Si        8.800673174    16.915516235    -3.554393011
 C        7.587739635    17.233973089    -4.908373643
 C        6.223938030    17.334920639    -4.611384022
 C        5.295338991    17.575176729    -5.622857046
 C        5.706747384    17.711841600    -6.951741104
 C        7.072534764    17.605598671    -7.246358282
 C        8.003738963    17.368668359    -6.237787360
 C        4.770156658    17.963778401    -8.042185768
 C        3.440120796    18.086419845    -7.893705508
 C        2.502165667    18.338328405    -8.982886022
 C        2.909703186    18.478584002   -10.311866054
 C        1.977873152    18.718858359   -11.321839029
 C        0.615793642    18.819458120   -11.023874915
 C        0.203953011    18.678660827    -9.691565731
 C        1.136515161    18.442958623    -8.685199418
Si       -0.640352545    19.136812519   -12.339020794
 C        0.136943846    19.036130129   -14.035941805
 C       -1.992261149    17.852344222   -12.210074614
 C       -1.353219984    20.844454846   -12.079113748
 C       10.390957329    17.843916467    -3.863181335
 C        9.136145324    15.082199362    -3.464691833
 C       -4.872830902    12.784267797    -1.290883829
 C       -4.891395660    12.744110380     1.769102750
 C       -0.604625372    -0.890211300    -1.528845722
 C       -0.628716543    -0.865314803     1.532179374
 H        1.210984108     2.679199163     0.638516657
 H        0.312537082     4.934380094     0.623815374
 H       -3.524535011     3.442804790    -0.631764739
 H       -2.666652408     1.167468679    -0.632868481
 H       -3.296935325     5.742825649    -0.319771464
 H       -0.522084847     6.778986712     0.582919418
 H       -4.131495450     7.583512141    -0.360044338
 H       -5.033607629     9.838158370    -0.374857295
 H       -1.153747852    11.359579913     0.882966146
 H       -0.296247376     9.080167604     0.895958468
 H       -1.797605180    13.569312531    -0.693263139
 H       -2.787740547    14.752920350     2.020546131
 H       -1.566211161    16.501779452     2.914928720
 H        0.288532832    18.098377954     2.867147194
 H        1.686070602    16.322318594    -0.823505299
 H       -0.235939125    14.821663263    -0.817161737
 H        4.088731083    18.759529260     0.145364547
 H        2.873247787    18.125040450    -0.983157506
 H        3.762207228    17.009640273     0.114054889
 H        5.069312243    20.443704948     5.137220633
 H        4.548251464    20.722676402     3.447892649
 H        6.288239586    20.723490877     3.883051078
 H        6.221248830    16.331902887     3.403290128
 H        7.213024980    15.471311142     1.314680628
 H        7.023347662    19.416965538    -0.401646108
 H        6.021744249    20.277104537     1.656510030
 H        7.989575320    15.752750003    -0.846738952
 H        7.836438012    18.633640888    -2.042778816
 H        5.842704427    17.234699483    -3.589288426
 H        4.240008638    17.653926126    -5.366785338
 H        7.413160070    17.709098651    -8.274965357
 H        9.055779904    17.297449191    -6.526355039
 H        5.231032400    18.050786630    -9.030497291
 H        2.979238612    17.998827050    -6.905159331
 H        3.964110184    18.401569285   -10.571250895
 H        2.357474675    18.820884504   -12.342206334
 H       -0.847719097    18.747959814    -9.399200219
 H        0.797790022    18.337443394    -7.655969934
 H        3.523791347    19.457033161     2.133594303
 H        1.927852509    19.214386666     2.871449431
 H        2.486197183    16.946967821     3.617250288
 H        3.863718191    16.831470719     2.533992744
 H        3.650115203    18.653362692     5.032610038
 H        4.602623394    17.155068392     4.893770098
 H        2.267377115    -1.028329942    -0.066988319
 H        2.278349611     0.451809805     0.920817647
 H        2.270804198     0.566772156    -0.859379152
 H       -0.620693221    19.167347617   -14.829204201
 H        0.620477362    18.056504162   -14.200572643
 H        0.903151143    19.818344607   -14.180004076
 H       -1.583707794    16.830937488   -12.317565785
 H       -2.508526104    17.900037403   -11.235172198
 H       -2.754191969    17.990735412   -12.997230332
 H       -0.568812935    21.620172939   -12.145173842
 H       -2.120142526    21.080296263   -12.837640742
 H       -1.825885556    20.938424607   -11.085229477
 H       10.206946554    18.924985476    -4.000154678
 H       11.088955433    17.732257435    -3.013246062
 H       10.907597026    17.476401829    -4.767077808
 H        8.208302799    14.511357683    -3.277267465
 H        9.565229447    14.706475797    -4.411285728
 H        9.849587807    14.840738691    -2.656670004
 H       -4.290863538    12.581283924    -2.208180573
 H       -5.760300957    12.128322011    -1.307771752
 H       -5.228886911    13.828891851    -1.348864110
 H       -4.300785138    12.589784114     2.690585157
 H       -5.321174800    13.760674661     1.810635130
 H       -5.730313188    12.025861518     1.793411785
 H       -0.290364141    -0.362766112    -2.447900778
 H       -0.201029098    -1.916895453    -1.580260508
 H       -1.705807133    -0.965449019    -1.550210269
 H       -0.283295922    -0.356418455     2.450300095
 H       -1.732888166    -0.881776805     1.561413682
 H       -0.277202333    -1.910983965     1.577409613

