139   

Si        0.000000000     0.000000000     0.000000000
 C        1.869162272     0.000000000     0.000000000
 C       -0.610159808     1.741912273     0.000000000
 C       -0.143088713     2.645111935    -0.962450305
 C       -0.594403100     3.964001692    -0.975556291
 C       -1.524517206     4.410338419    -0.031812013
 C       -1.992347268     3.504255906     0.928328686
 C       -1.542136100     2.186026676     0.944781837
 C       -2.026606808     5.780033388    -0.004696675
 C       -1.663239300     6.749050230    -0.861973327
 C       -2.171058455     8.117059576    -0.827149305
 C       -3.101352838     8.548766792     0.123066242
 C       -3.561911575     9.864468081     0.122598158
 C       -3.092105114    10.780709522    -0.824419475
 C       -2.160512246    10.352427191    -1.777486441
 C       -1.710196799     9.034241930    -1.780477380
Si       -3.704691388    12.521146670    -0.821027462
 C       -2.474895133    13.570790412    -1.681815457
 C       -2.694058551    14.304887654    -2.780459862
 C       -1.666953391    15.127064045    -3.425341347
 C       -2.001076901    15.859587154    -4.574746048
 C       -1.063392247    16.650039502    -5.217655422
 C        0.255078392    16.744672505    -4.719154019
 C        0.596789231    15.995580980    -3.579649246
 C       -0.349456556    15.183239883    -2.965233831
 N        1.181220928    17.557717276    -5.398731684
 C        0.708153402    18.880598178    -5.852468249
 C        2.567661388    17.562360370    -4.911191557
 C       -0.133836079    19.680211740    -4.843607150
 C        0.675358163    20.379908770    -3.732679842
 N        0.395657527    19.945686608    -2.341686023
 C       -0.949124711    19.540010272    -2.117406048
 C       -1.957994776    20.504977506    -2.298469631
 C       -3.286057558    20.165278030    -2.093747218
 C       -3.646409181    18.869841800    -1.694586506
 C       -2.638415883    17.922499764    -1.498924337
 C       -1.302749180    18.251531511    -1.694477141
 C        1.420566064    19.046305742    -1.786780542
 C       -5.062851358    18.557975969    -1.490644249
 C       -5.507917446    17.353802697    -1.110674251
Si       -7.258189084    16.892996783    -0.837123661
 C       -7.599927161    15.520859114    -2.024861881
 C       -6.868602379    15.445441265    -3.216356886
 C       -7.107163592    14.419992698    -4.129268776
 C       -8.082250347    13.451049712    -3.874423038
 C       -8.815450402    13.531724276    -2.683236521
 C       -8.580015606    14.556044737    -1.768536525
 C       -8.364378674    12.360986446    -4.802324393
 C       -7.731840377    12.175374284    -5.973423537
 C       -8.009586165    11.087483803    -6.905162010
 C       -8.983015933    10.114304533    -6.659473240
 C       -9.215457586     9.091910992    -7.577663235
 C       -8.479432077     9.021456584    -8.766865137
 C       -7.505000627     9.994430716    -9.015106595
 C       -7.273119451    11.013982018    -8.094078327
Si       -8.810277102     7.655177262    -9.963617955
 C      -10.611763656     7.711779248   -10.458514682
 C       -7.746398288     7.835299583   -11.489796153
 C       -8.425286090     6.027666405    -9.129863230
 C       -7.436412865    16.289907574     0.921128084
 C       -8.429965790    18.305183470    -1.165330038
 C       -5.350263599    12.518392264    -1.693157923
 C       -3.900373260    13.173764866     0.918279964
 C       -0.636532149    -0.847467637    -1.539634900
 C       -0.610629858    -0.916660809     1.510526225
 H        0.583082263     2.354302389    -1.726713831
 H       -0.214972682     4.647803538    -1.732883078
 H       -2.717207758     3.830274138     1.672076095
 H       -1.943232734     1.525736855     1.718442565
 H       -2.750603518     5.984035974     0.790046015
 H       -0.940937083     6.548147990    -1.658389287
 H       -3.477238104     7.855596059     0.873201814
 H       -4.292649946    10.142315166     0.886941921
 H       -1.762850350    11.027156948    -2.542841873
 H       -0.990091851     8.717029108    -2.532481848
 H       -1.483195197    13.555034763    -1.200018847
 H       -3.668953408    14.348221905    -3.284037496
 H       -3.017704850    15.812203326    -4.968153929
 H       -1.340935010    17.193657121    -6.116534271
 H        1.603145637    16.025851322    -3.175497173
 H       -0.050686898    14.595302382    -2.095061335
 H        3.212463641    18.055241215    -5.660179178
 H        2.930910354    16.522220464    -4.821367423
 H        2.703015884    18.073161198    -3.945404829
 H        2.405435451    19.536938159    -1.861300990
 H        1.471799433    18.060131578    -2.275233874
 H        1.218770354    18.893586413    -0.710428416
 H       -1.686161375    21.514226115    -2.597512848
 H       -4.058217845    20.919498494    -2.241598223
 H       -2.890340743    16.902176267    -1.198934158
 H       -0.544843045    17.483696489    -1.554031333
 H       -5.728874926    19.409404893    -1.676917588
 H       -4.807254978    16.519514089    -0.930368464
 H       -6.090956319    16.175806315    -3.468052028
 H       -6.524744923    14.380400097    -5.048294089
 H       -9.579188156    12.787185690    -2.467200318
 H       -9.181636073    14.568962476    -0.856115031
 H       -9.151760228    11.674558713    -4.478424240
 H       -6.942788678    12.861909068    -6.295692073
 H       -9.568849918    10.147578048    -5.742464682
 H       -9.988031213     8.358659235    -7.329079424
 H       -6.899839485     9.989398400    -9.925706410
 H       -6.509118012    11.760198968    -8.304838799
 H        1.580798708    19.483267478    -6.186144119
 H        0.096765148    18.699669810    -6.771314427
 H       -0.719283294    20.440720571    -5.396459103
 H       -0.907215455    19.013937909    -4.404421688
 H        1.763345569    20.289565058    -3.931822856
 H        0.451075212    21.474075127    -3.752306684
 H        2.270139372    -1.028712254     0.014506321
 H        2.268644696     0.526068888     0.886182333
 H        2.276420004     0.503939398    -0.894113262
 H      -10.856554826     6.910145670   -11.177270667
 H      -10.864845125     8.675966098   -10.935692644
 H      -11.277167184     7.591592443    -9.585466633
 H       -7.936794904     8.793267628   -12.005599116
 H       -6.670798992     7.794074045   -11.241683851
 H       -7.948582774     7.025412700   -12.213474311
 H       -9.043187559     5.878587364    -8.226604209
 H       -8.610672340     5.174844872    -9.806116030
 H       -7.366548108     5.980213133    -8.815430443
 H       -6.814683338    15.394089545     1.103541206
 H       -7.120009181    17.065063232     1.642749858
 H       -8.481525689    16.024586320     1.156787180
 H       -8.338373545    18.673992320    -2.203299038
 H       -9.481269246    17.998111495    -1.019334313
 H       -8.235461535    19.156519354    -0.488514011
 H       -5.262076610    12.132209634    -2.725964178
 H       -6.083929113    11.879353581    -1.170222474
 H       -5.787463957    13.532572086    -1.758302602
 H       -2.950040327    13.127579275     1.478895620
 H       -4.231463154    14.228853259     0.910512463
 H       -4.650232238    12.595676870     1.485304338
 H       -0.291848121    -0.334514085    -2.455070408
 H       -0.293621935    -1.895464213    -1.593795176
 H       -1.741401584    -0.855796677    -1.563573001
 H       -0.284630542    -0.420996532     2.442449524
 H       -1.713019465    -0.979603924     1.530364633
 H       -0.221475387    -1.950344414     1.532776801

