139   

Si        0.000000000     0.000000000     0.000000000
 C        1.868992163     0.000000000     0.000000000
 C       -0.654316901     1.726393440     0.000000000
 C        0.198679158     2.833399644    -0.028607041
 C       -0.318832655     4.128875745    -0.028010963
 C       -1.698428696     4.345998312     0.005199722
 C       -2.552823396     3.235301498     0.033844015
 C       -2.039103514     1.941573778     0.029344601
 C       -2.285020017     5.681603764     0.007172869
 C       -1.581367734     6.826575007    -0.022035119
 C       -2.174477572     8.159691502    -0.019870710
 C       -1.328866100     9.276529448    -0.052439460
 C       -1.851928604    10.567564089    -0.051657830
 C       -3.236382224    10.769383284    -0.016936767
 C       -4.083136230     9.655607450     0.013489647
 C       -3.556580227     8.365128201     0.009299969
Si       -3.953383163    12.471423609    -0.015178050
 C       -5.672258632    12.286192031     0.588155021
 C       -6.785749487    12.614781479    -0.078641311
 C       -8.133970387    12.438466915     0.467741038
 C       -9.238389332    12.814517358    -0.311834775
 C      -10.530230567    12.664801674     0.166369856
 C      -10.750445971    12.100093341     1.437048907
 C       -9.652107527    11.720711317     2.219031347
 C       -8.360086178    11.903294744     1.737971224
 N      -12.104584452    11.974968353     1.868157078
 C      -12.863413444    11.005440518     1.043897008
 C      -12.291955766    11.747926439     3.312075228
 C      -12.258627408     9.586230433     1.023575702
 C      -12.358995973     8.970191093    -0.384518661
 N      -11.497471629     7.806137610    -0.647299475
 C      -10.174509523     8.078830865    -1.112608299
 C       -9.473773072     9.265793188    -0.868087206
 C       -8.186604013     9.430651084    -1.368118021
 C       -7.583879721     8.441160403    -2.152893467
 C       -8.298042770     7.263844815    -2.408363675
 C       -9.574183412     7.078153622    -1.897291361
 C      -11.531379988     6.788743186     0.419713204
 C       -6.224423884     8.659013820    -2.658428236
 C       -5.562318105     7.775083826    -3.415706426
Si       -3.866484457     7.974336941    -4.083756246
 C       -3.995228603     7.890409155    -5.924509317
 C       -5.141331795     8.375861987    -6.567259441
 C       -5.250095230     8.318133122    -7.954066429
 C       -4.215607610     7.781911248    -8.732531186
 C       -3.072083410     7.301994387    -8.088069564
 C       -2.961493376     7.355055609    -6.698840690
 C       -4.376733897     7.743362429   -10.182413068
 C       -3.466438474     7.254138179   -11.041508805
 C       -3.629097554     7.216312321   -12.491234614
 C       -4.774042021     7.696999284   -13.134268786
 C       -4.888097996     7.641467032   -14.522150019
 C       -3.857123426     7.101175851   -15.300580539
 C       -2.710722105     6.618922647   -14.659657770
 C       -2.599353144     6.676362111   -13.271876044
Si       -4.038253020     7.041785012   -17.136493204
 C       -5.536006749     6.005776145   -17.556861885
 C       -4.263958165     8.784751269   -17.772651841
 C       -2.523510199     6.286882986   -17.930061554
 C       -3.097995474     9.602949731    -3.606298504
 C       -2.818899042     6.565651465    -3.453030069
 C       -3.019445844    13.585026092     1.153043551
 C       -3.896309675    13.148530271    -1.752855959
 C       -0.619240595    -0.873215768    -1.531885131
 C       -0.617467228    -0.876104037     1.530983248
 H        1.286659414     2.726562885    -0.052499145
 H        0.367139036     4.973692383    -0.052823243
 H       -3.631303050     3.383145381     0.058325059
 H       -2.753944027     1.114102102     0.050432632
 H       -3.379716885     5.700300118     0.038108532
 H       -0.488360578     6.810420899    -0.049404039
 H       -0.249977164     9.136832246    -0.077926122
 H       -1.144500664    11.400290664    -0.076778856
 H       -5.175377597     9.750457838     0.038908337
 H       -4.238974331     7.515458012     0.026632219
 H       -5.724934262    11.862715008     1.606176340
 H       -6.773670872    13.044262824    -1.088225958
 H       -9.081593989    13.239214437    -1.303809850
 H      -11.379371664    12.988183146    -0.432548486
 H       -9.794719039    11.279730741     3.201231467
 H       -7.517772636    11.606555375     2.365159603
 H      -13.360680934    11.888109226     3.551811976
 H      -11.732379944    12.511527268     3.880155634
 H      -11.986032809    10.749392754     3.659547612
 H      -12.580208656     6.533703870     0.643972771
 H      -11.034977174     7.105770808     1.350393468
 H      -11.035251403     5.869494861     0.062433736
 H       -9.918532113    10.062933909    -0.274456660
 H       -7.646859216    10.353843519    -1.143794926
 H       -7.853082522     6.478556103    -3.020125919
 H      -10.124547309     6.163881591    -2.109974063
 H       -5.794976618     9.623081275    -2.355187591
 H       -6.024379075     6.814561287    -3.700065911
 H       -5.981249911     8.803801294    -6.009848562
 H       -6.149894424     8.695184014    -8.436435670
 H       -2.254909718     6.879578292    -8.669579004
 H       -2.045154338     6.961227149    -6.250425878
 H       -5.323163086     8.153303225   -10.547679837
 H       -2.520375985     6.843835238   -10.676412726
 H       -5.589749283     8.120873021   -12.551066008
 H       -5.807179118     8.033239015   -14.967173969
 H       -1.874595069     6.186626691   -15.215764876
 H       -1.699422143     6.295787507   -12.792180610
 H      -13.909861277    10.977024869     1.416353168
 H      -12.920756680    11.425742693     0.013416374
 H      -11.198388337     9.611311400     1.344004160
 H      -12.767343313     8.942168874     1.760906200
 H      -13.406067774     8.629124015    -0.566906680
 H      -12.146000959     9.739120812    -1.162973626
 H        2.266629267    -1.030635351     0.022741771
 H        2.274222949     0.528833953     0.881127023
 H        2.274648055     0.489567864    -0.903211759
 H       -5.675907141     5.924851062   -18.649047263
 H       -6.459877141     6.437401924   -17.132833365
 H       -5.437555898     4.980312897   -17.156400155
 H       -5.155184663     9.265113086   -17.331556096
 H       -3.392165866     9.416710263   -17.523068625
 H       -4.383799214     8.800567053   -18.870062359
 H       -2.341944697     5.261128225   -17.562782113
 H       -2.635124425     6.229761524   -19.027560453
 H       -1.617702240     6.883736106   -17.721284222
 H       -3.720079926    10.459188608    -3.919958661
 H       -2.961313002     9.667741742    -2.508225299
 H       -2.102961696     9.730123475    -4.067953424
 H       -3.209985183     5.585170601    -3.777363639
 H       -1.775495068     6.643835146    -3.805049142
 H       -2.787723066     6.561077413    -2.346307110
 H       -2.996814150    13.170349265     2.177367263
 H       -1.973050578    13.727322939     0.830373752
 H       -3.486700219    14.584903596     1.213297840
 H       -4.437581140    12.493231911    -2.460820200
 H       -4.351698437    14.153161901    -1.809964387
 H       -2.856417939    13.235625601    -2.115893390
 H       -0.268706295    -0.367188100    -2.449846762
 H       -0.263671796    -1.917912522    -1.571159317
 H       -1.722805772    -0.894370197    -1.568552369
 H       -0.274258069    -0.365175482     2.449062809
 H       -1.720856052    -0.906719374     1.564440668
 H       -0.253420880    -1.917729000     1.572948960

