139   

Si        0.000000000     0.000000000     0.000000000
 C        1.869291545     0.000000000     0.000000000
 C       -0.605089958     1.743770830     0.000000000
 C       -0.128266245     2.644129227    -0.960443684
 C       -0.573057678     3.965000358    -0.976935194
 C       -1.506424731     4.416620288    -0.038789903
 C       -1.983948567     3.513521671     0.919283619
 C       -1.540046002     2.193013598     0.939227697
 C       -2.000599669     5.789397223    -0.017389098
 C       -1.624390580     6.752616826    -0.875686365
 C       -2.120407124     8.124875499    -0.851843641
 C       -3.054023526     8.571451871     0.088717436
 C       -3.501437538     9.890806215     0.076029896
 C       -3.026730149    10.794711418    -0.883286258
 C       -2.093724618    10.350315633    -1.825714116
 C       -1.645802586     9.030781952    -1.808461317
Si       -3.645313644    12.534627216    -0.865277396
 C       -3.174157135    13.333289816     0.715151138
 C       -2.486962161    12.735661729     1.697365541
 C       -2.111749507    13.375933229     2.959149570
 C       -1.389644014    12.632704691     3.904765830
 C       -1.008156237    13.187494293     5.115454602
 C       -1.380786026    14.509201049     5.441832148
 C       -2.110292563    15.254546430     4.496849493
 C       -2.451871805    14.693973783     3.272319166
 N       -0.982103606    15.049947557     6.675472201
 C       -0.961558120    14.167502608     7.857013359
 C       -1.367900447    16.439244835     6.952293283
 C       -2.152382913    13.200223338     8.000805610
 C       -3.056000514    13.466404120     9.218149302
 N       -4.066278184    14.536520867     9.062512921
 C       -4.697959754    14.588829395     7.800058959
 C       -5.242676404    13.392045033     7.286642075
 C       -5.872722383    13.385258383     6.054766534
 C       -5.984124289    14.558691421     5.293401787
 C       -5.471698836    15.746276089     5.818927404
 C       -4.862414860    15.775576522     7.068819648
 C       -3.663460011    15.816315144     9.663523072
 C       -6.661156085    14.490900457     3.997653810
 C       -6.829262767    15.540225327     3.182566224
Si       -7.673235009    15.470734560     1.560368186
 C       -6.459711271    15.995882844     0.270581776
 C       -5.165296485    16.395031010     0.623074722
 C       -4.256346777    16.789566252    -0.355774250
 C       -4.614584135    16.780616822    -1.709512447
 C       -5.906597832    16.376237212    -2.059347677
 C       -6.821341335    15.989307646    -1.081275009
 C       -3.628003659    17.202633481    -2.698192484
 C       -3.844800541    17.248985164    -4.023497665
 C       -2.857511848    17.671175203    -5.011450467
 C       -1.566211445    18.075280920    -4.661246722
 C       -0.653887157    18.471230995    -5.638695596
 C       -1.016083952    18.479308373    -6.989939288
 C       -2.309630004    18.074862509    -7.343078718
 C       -3.216468154    17.672654663    -6.365654540
Si        0.189549265    19.003056692    -8.286914667
 C        1.401945740    20.235671773    -7.575803571
 C        1.105020366    17.487388926    -8.883291003
 C       -0.716023644    19.799404311    -9.715446498
 C       -8.272967723    13.744784327     1.179877624
 C       -9.110137519    16.663065588     1.577424142
 C       -2.901209490    13.525225865    -2.262444257
 C       -5.501882722    12.507880978    -1.048463021
 C       -0.637385310    -0.847115573    -1.539230929
 C       -0.611995099    -0.914685148     1.511052999
 H        0.600843203     2.349541375    -1.720569310
 H       -0.185809760     4.646317375    -1.732575843
 H       -2.711397754     3.843576811     1.658590145
 H       -1.948428553     1.534999936     1.710932457
 H       -2.728107931     6.000557694     0.771828117
 H       -0.897596939     6.542266884    -1.665830099
 H       -3.439086634     7.886950968     0.841963430
 H       -4.231100280    10.183444675     0.837848926
 H       -1.688351355    11.012775746    -2.595682460
 H       -0.918729698     8.703812959    -2.549197121
 H       -3.514264655    14.377562925     0.803447711
 H       -2.139663143    11.694458839     1.626514403
 H       -1.110818762    11.602034506     3.681109735
 H       -0.420189701    12.601124601     5.814713091
 H       -2.431983452    16.267061189     4.715566221
 H       -3.014432204    15.293727824     2.555134460
 H       -0.902127891    16.779250093     7.891814936
 H       -2.458897431    16.587690968     7.017133080
 H       -0.970646250    17.089888705     6.149743935
 H       -3.387814503    15.644183151    10.719052283
 H       -4.527295563    16.505483295     9.672635319
 H       -2.819069691    16.308203708     9.158594589
 H       -5.171759575    12.475043242     7.866223624
 H       -6.283500453    12.450852027     5.670261229
 H       -5.556188988    16.674400126     5.251673879
 H       -4.503893183    16.722794495     7.458082446
 H       -7.011592306    13.480317292     3.747214419
 H       -6.467917794    16.542553391     3.460699863
 H       -4.828001982    16.412966031     1.664959551
 H       -3.254480654    17.100678412    -0.062895557
 H       -6.209060480    16.360278529    -3.104711424
 H       -7.818017915    15.687940772    -1.414548007
 H       -2.658478584    17.493341370    -2.281883223
 H       -4.813939039    16.959669743    -4.440663425
 H       -1.260302936    18.082835344    -3.616372636
 H        0.341820023    18.774741883    -5.303152064
 H       -2.649133777    18.060879020    -8.382490830
 H       -4.216413630    17.359666496    -6.660629949
 H       -0.014259377    13.577371524     7.787854550
 H       -0.859503588    14.790042525     8.771982118
 H       -2.760148422    13.203775152     7.069815149
 H       -1.770660230    12.162447772     8.067742056
 H       -3.626960157    12.534125373     9.453742888
 H       -2.437861540    13.676035662    10.117201144
 H        2.270666541    -1.028278206     0.028005569
 H        2.268461404     0.537684196     0.879337123
 H        2.276595479     0.492211109    -0.900589893
 H        2.084061246    20.619459699    -8.355322597
 H        2.026326023    19.786511281    -6.783723300
 H        0.878148929    21.104020275    -7.136594053
 H        1.654773797    16.999008413    -8.058538472
 H        0.411021838    16.737871922    -9.304301329
 H        1.837996603    17.742606878    -9.668677260
 H       -1.335173070    20.648282209    -9.372767656
 H       -0.008931296    20.187952707   -10.469894435
 H       -1.383885916    19.084653482   -10.227100495
 H       -7.437699639    13.018763389     1.195076742
 H       -9.023181031    13.408619927     1.917525775
 H       -8.741580642    13.688577333     0.181780611
 H       -8.775419827    17.697737617     1.772801890
 H       -9.644666548    16.665978786     0.611377702
 H       -9.840675597    16.397883236     2.362802548
 H       -1.801980754    13.589574594    -2.177535645
 H       -3.141546648    13.086846296    -3.246442753
 H       -3.291293430    14.562124951    -2.261870794
 H       -5.989349907    12.003285741    -0.196734869
 H       -5.904690730    13.536997460    -1.108481990
 H       -5.803531676    11.978869727    -1.969551239
 H       -0.291543636    -0.335312005    -2.454908455
 H       -0.295933484    -1.895681706    -1.592721640
 H       -1.742255785    -0.853967843    -1.563657487
 H       -0.279799982    -0.422490331     2.442602262
 H       -1.714728652    -0.970172377     1.534098578
 H       -0.229791228    -1.951016208     1.530799791

