139   

Si        0.000000000     0.000000000     0.000000000
 C        1.869430710     0.000000000     0.000000000
 C       -0.632500316     1.734533972     0.000000000
 C        0.042641698     2.735408020    -0.707592075
 C       -0.431818669     4.046492137    -0.710060454
 C       -1.595691349     4.386162230    -0.014413179
 C       -2.273414514     3.381882832     0.688869283
 C       -1.799470371     2.072211334     0.696179682
 C       -2.130445844     5.743623361     0.012135417
 C       -1.578844866     6.797107369    -0.613819544
 C       -2.117390641     8.153236775    -0.584410114
 C       -3.282579741     8.485374908     0.113955090
 C       -3.762965793     9.793326233     0.116214599
 C       -3.089759759    10.800032076    -0.587678590
 C       -1.924770839    10.470561748    -1.288232865
 C       -1.444308919     9.162337988    -1.284269622
Si       -3.757672539    12.519886215    -0.560186784
 C       -3.740636656    13.168975400     1.152579072
 C       -3.306275539    12.490708348     2.223177091
 C       -3.297250469    13.019443887     3.587669463
 C       -2.815831299    12.207473458     4.625346736
 C       -2.785768288    12.659830699     5.934063901
 C       -3.198640603    13.973273168     6.246366877
 C       -3.682722694    14.788108201     5.206046639
 C       -3.748884305    14.302584106     3.906130199
 N       -3.160665665    14.414443700     7.583073608
 C       -2.028473682    13.944319748     8.403006119
 C       -3.486407897    15.830987875     7.824029123
 C       -0.659846009    14.383074468     7.852013847
 C        0.467785907    14.285426050     8.892435214
 N        0.279797556    15.082957091    10.126066308
 C       -0.357392626    16.331694986     9.955188923
 C        0.169712085    17.218601542     8.991964740
 C       -0.418865703    18.454535976     8.786679243
 C       -1.525289463    18.865202261     9.547024790
 C       -2.027557248    17.994434226    10.516072981
 C       -1.451928634    16.746804321    10.730679349
 C       -0.141967406    14.277762792    11.283466828
 C       -2.109719556    20.183142661     9.288821031
 C       -3.163461400    20.678502417     9.950488777
Si       -3.926255587    22.319196448     9.661110228
 C       -3.818976009    23.288176368    11.226962970
 C       -2.793494739    23.031507532    12.145500758
 C       -2.708796714    23.760743485    13.328943615
 C       -3.639874006    24.766680185    13.619533318
 C       -4.659441345    25.022524061    12.698111653
 C       -4.749289757    24.292346511    11.513564988
 C       -3.509419348    25.503446431    14.872670091
 C       -4.334851078    26.486221045    15.271000569
 C       -4.205031494    27.223351352    16.523865394
 C       -3.186439406    26.969250458    17.446616058
 C       -3.100327773    27.698439300    18.632083654
 C       -4.038940684    28.693495207    18.926059534
 C       -5.061280170    28.948928352    18.003743680
 C       -5.140110453    28.224680684    16.816765627
Si       -3.924838981    29.659069164    20.495920359
 C       -3.171475833    28.603469499    21.842522035
 C       -2.848165574    31.154753744    20.187322264
 C       -5.628525379    30.206241851    21.037483256
 C       -3.045228888    23.265515366     8.314702716
 C       -5.711566287    22.044843683     9.183240129
 C       -2.727575485    13.654374495    -1.629819981
 C       -5.517955077    12.497038650    -1.186806301
 C       -0.632555545    -0.853263938    -1.537401637
 C       -0.604148450    -0.908577239     1.518220888
 H        0.956644858     2.530707542    -1.272081064
 H        0.114126685     4.807713334    -1.264577107
 H       -3.182144688     3.624349952     1.236941847
 H       -2.370525120     1.332527431     1.264075575
 H       -3.048165677     5.860995315     0.596452103
 H       -0.662159653     6.680873367    -1.199129050
 H       -3.825492160     7.719276398     0.664766009
 H       -4.678080058     9.993004039     0.683114076
 H       -1.357782184    11.215443344    -1.853083710
 H       -0.535280250     8.925651993    -1.833875745
 H       -4.126892523    14.195461511     1.244835023
 H       -2.912015406    11.465866184     2.154795187
 H       -2.469006738    11.197555810     4.401953229
 H       -2.440473927    11.994806834     6.720298830
 H       -4.016479284    15.801965258     5.403286551
 H       -4.144002210    14.948670009     3.121100007
 H       -3.393868864    16.064472050     8.899897718
 H       -4.539297164    16.012155964     7.543430264
 H       -2.839241685    16.535361432     7.275831305
 H        0.587567379    13.461722388    11.433319038
 H       -1.146060794    13.835801734    11.190135632
 H       -0.109783619    14.899008732    12.196701673
 H        1.045580317    16.927576895     8.416471359
 H       -0.006093864    19.123255310     8.030345247
 H       -2.883967106    18.291599964    11.124007924
 H       -1.872893922    16.097436155    11.491934095
 H       -1.595210935    20.735968042     8.491744802
 H       -3.659308521    20.099071399    10.746519255
 H       -2.038451159    22.257647711    11.970714623
 H       -1.907662940    23.545066779    14.033780080
 H       -5.395801431    25.798276271    12.900063330
 H       -5.569600610    24.535902353    10.833001396
 H       -2.664794789    25.197345985    15.497125160
 H       -5.179374014    26.792240494    14.646453801
 H       -2.447262956    26.195967297    17.244618738
 H       -2.279525171    27.455631495    19.312735314
 H       -5.823220600    29.713346424    18.179507657
 H       -5.940848055    28.439736182    16.111511611
 H       -2.178038420    14.329120102     9.437449602
 H       -2.081385204    12.835819837     8.482196980
 H       -0.398870840    13.770828766     6.966192447
 H       -0.731204124    15.421648595     7.469034569
 H        0.636952342    13.221657104     9.167786242
 H        1.421385419    14.639694305     8.429914726
 H        2.268706411    -1.027315780     0.071524122
 H        2.268895227     0.572134515     0.857082250
 H        2.279458607     0.450486169    -0.920724043
 H       -3.157909046    29.138788176    22.808637749
 H       -2.130536298    28.320455738    21.607768294
 H       -3.746362737    27.670906447    21.987867631
 H       -1.833210597    30.860084572    19.865096419
 H       -3.270797213    31.797403915    19.394116555
 H       -2.744257347    31.771277763    21.097392337
 H       -6.308969914    29.342761596    21.149720240
 H       -5.589752847    30.726602396    22.011092282
 H       -6.086581782    30.899962703    20.311067471
 H       -1.984685249    23.440338333     8.573005380
 H       -3.073318870    22.721985724     7.353767815
 H       -3.509144296    24.255144460     8.151641384
 H       -6.278783013    21.564962401    10.001213213
 H       -6.218290175    22.994515785     8.938217997
 H       -5.789687232    21.388757927     8.297296363
 H       -1.689317591    13.725423944    -1.257794730
 H       -2.689462582    13.299804222    -2.674863043
 H       -3.141850918    14.678333227    -1.642146222
 H       -6.166140348    11.870145601    -0.548257274
 H       -5.953057016    13.511636071    -1.206146787
 H       -5.570536250    12.090420657    -2.212788352
 H       -0.289272880    -0.339454142    -2.453281564
 H       -0.283755309    -1.899520718    -1.589832974
 H       -1.737150438    -0.867182806    -1.563531233
 H       -0.314331601    -0.378856396     2.443691844
 H       -1.703212680    -1.013398805     1.522508262
 H       -0.176292186    -1.925634261     1.570944351

