139   

Si        0.000000000     0.000000000     0.000000000
 C        1.869369217     0.000000000     0.000000000
 C       -0.611825705     1.742029718     0.000000000
 C       -0.054768522     2.674340646     0.883725874
 C       -0.503675399     3.993770451     0.898208925
 C       -1.524060770     4.410980885     0.038092104
 C       -2.082623642     3.476027709    -0.842248151
 C       -1.632641114     2.157480328    -0.862322673
 C       -2.024549941     5.781683528     0.019534175
 C       -1.570769515     6.770541988     0.808244161
 C       -2.068495782     8.141797765     0.792597231
 C       -3.088535631     8.564639661    -0.065231651
 C       -3.533538354     9.886072733    -0.046212629
 C       -2.956827610    10.815756714     0.825338512
 C       -1.933320580    10.395677845     1.683482312
 C       -1.497077501     9.073524994     1.668970819
Si       -3.536197195    12.567985989     0.860884456
 C       -2.317497108    13.535283517     1.823798240
 C       -2.591747225    14.217810196     2.943109747
 C       -1.598264894    14.985158239     3.696625204
 C       -2.008923677    15.659951712     4.857364838
 C       -1.109032808    16.399186196     5.605455377
 C        0.245317290    16.463105895     5.221079692
 C        0.659391942    15.795261982     4.060146618
 C       -0.262836800    15.080092452     3.302363461
 N        1.115462137    17.239662426     6.033385954
 C        1.246628741    16.762807539     7.424047182
 C        2.398970808    17.615894846     5.419538555
 C        2.189922065    15.562199619     7.643817841
 C        1.617678635    14.243761378     7.090922873
 N        0.336328736    13.907960808     7.749004869
 C       -0.498351210    12.996919564     7.035807439
 C       -0.068480291    12.231202739     5.942362013
 C       -0.953084523    11.367130106     5.306521389
 C       -2.287185671    11.264395318     5.716947786
 C       -2.716537403    12.052380158     6.792061147
 C       -1.844384332    12.915649625     7.438130907
 C        0.519493797    13.513705325     9.162792461
 C       -3.179503316    10.338175072     5.013262821
 C       -4.470544863    10.161372359     5.322166655
Si       -5.626922695     9.017911740     4.475097342
 C       -6.241254336     7.811192053     5.731106266
 C       -5.465451916     7.512491376     6.858243300
 C       -5.923157909     6.603579742     7.808690663
 C       -7.160850374     5.965627232     7.653080214
 C       -7.929929900     6.262042025     6.524130863
 C       -7.475666659     7.173728036     5.571761127
 C       -7.597256068     5.020931289     8.676246506
 C       -8.759105548     4.345983734     8.649240909
 C       -9.195080433     3.401414516     9.672601910
 C       -8.427031390     3.104521817    10.801346822
 C       -8.883073153     2.194401531    11.755312468
 C      -10.120367208     1.562742945    11.601549741
 C      -10.893571177     1.858889116    10.470548179
 C      -10.435110789     2.765968008     9.519351113
Si      -10.753291058     0.353925686    12.844491747
 C       -9.533518445     0.137934030    14.244291053
 C      -12.371276561     0.991089916    13.530185252
 C      -11.020374380    -1.290996254    11.998230214
 C       -7.053831728    10.012111893     3.792136235
 C       -4.793712631     8.070208242     3.105932469
 C       -3.598532170    13.247378094    -0.877906287
 C       -5.228328063    12.644018516     1.642267029
 C       -0.610874781    -0.914590103    -1.511191912
 C       -0.636776488    -0.844064353     1.540723889
 H        0.742466768     2.406745320     1.583097637
 H       -0.051347400     4.700257609     1.592064046
 H       -2.878164969     3.779250306    -1.520482599
 H       -2.105216992     1.473796669    -1.572736997
 H       -2.824532721     5.966977693    -0.703300628
 H       -0.771176679     6.582580976     1.531118393
 H       -3.546035538     7.860493809    -0.757371806
 H       -4.336806753    10.158036619    -0.735950613
 H       -1.449125190    11.084842849     2.385657358
 H       -0.701066316     8.763555033     2.343629393
 H       -1.302274458    13.524616911     1.396661609
 H       -3.592669468    14.245341473     3.394762181
 H       -3.049225672    15.600493734     5.177569503
 H       -1.440453894    16.927511905     6.497231004
 H        1.695573606    15.829492488     3.740125249
 H        0.076290414    14.574468498     2.397680494
 H        2.911289804    18.337260810     6.078832622
 H        2.201307547    18.131484928     4.462569269
 H        3.081093990    16.772979227     5.229535422
 H        0.899317892    14.380653489     9.728629203
 H        1.215592172    12.670427666     9.293752007
 H       -0.448274286    13.232369033     9.610031012
 H        0.958507257    12.285030723     5.594479537
 H       -0.595120337    10.766175838     4.470208661
 H       -3.753728674    11.999864518     7.124337812
 H       -2.198049863    13.542610459     8.253863918
 H       -2.687441013     9.799184093     4.190928423
 H       -4.938717852    10.722198367     6.147421162
 H       -4.489554816     7.978935256     7.029997449
 H       -5.308583761     6.386309598     8.680273456
 H       -8.894548304     5.779589894     6.378924553
 H       -8.120558439     7.364889949     4.709958981
 H       -6.893958778     4.886309442     9.503530577
 H       -9.461779065     4.480008713     7.821621573
 H       -7.460192885     3.583612483    10.945718167
 H       -8.236606179     2.001885240    12.615869987
 H      -11.868813214     1.395367284    10.297279354
 H      -11.048884230     2.982661133     8.646946717
 H        1.599120520    17.628206474     8.029681180
 H        0.231434050    16.497537494     7.807072789
 H        3.170957246    15.751517005     7.170827051
 H        2.394621282    15.464984906     8.726322454
 H        1.428059734    14.368967477     5.997648379
 H        2.372832837    13.435253679     7.200778861
 H        2.269798926    -1.029207812    -0.000554424
 H        2.278511799     0.514991879     0.886749671
 H        2.268459394     0.512803231    -0.894029902
 H       -9.915045466    -0.574167988    14.997796086
 H       -9.337968876     1.093380116    14.762887201
 H       -8.566080096    -0.252732926    13.881549291
 H      -12.236009565     1.967092657    14.030859843
 H      -13.122552074     1.131499997    12.733099219
 H      -12.797140733     0.292317778    14.271338361
 H      -10.076523101    -1.680748841    11.575394363
 H      -11.407436225    -2.048104196    12.702514378
 H      -11.743118921    -1.207008533    11.167514714
 H       -7.591548570    10.550856752     4.592032233
 H       -6.702412970    10.762450149     3.060635276
 H       -7.784294624     9.365614613     3.275453546
 H       -3.964198719     7.446568594     3.487701869
 H       -5.498532843     7.394759154     2.589876309
 H       -4.367793143     8.751535096     2.342532531
 H       -2.617755587    13.163506744    -1.379737405
 H       -4.335847607    12.709908764    -1.498861444
 H       -3.878492915    14.316471705    -0.878201277
 H       -5.180025170    12.369781661     2.713772511
 H       -5.655870073    13.660361399     1.577764004
 H       -5.933340092    11.952455644     1.148870960
 H       -0.296586062    -0.409688923    -2.442257417
 H       -0.210986060    -1.943977766    -1.542335104
 H       -1.712608204    -0.989451068    -1.524960009
 H       -0.288244615    -0.331532149     2.455222800
 H       -1.741700209    -0.848585762     1.567714826
 H       -0.297343851    -1.893284354     1.595187900

