139   

Si        0.000000000     0.000000000     0.000000000
 C        1.869523499     0.000000000     0.000000000
 C       -0.630547937     1.735407052     0.000000000
 C        0.092494944     2.755471918    -0.627886265
 C       -0.383196843     4.066287627    -0.628221471
 C       -1.595075295     4.386721798    -0.009853608
 C       -2.320551910     3.363106221     0.613555504
 C       -1.846235448     2.053619691     0.618228085
 C       -2.132010398     5.743485131     0.014958136
 C       -1.535793347     6.811957046    -0.540750618
 C       -2.072149574     8.168837521    -0.516289670
 C       -3.284138499     8.489074727     0.102180953
 C       -3.759553039     9.799755158     0.101716990
 C       -3.038303278    10.817840225    -0.530841697
 C       -1.824690742    10.499666930    -1.152979686
 C       -1.346556698     9.191811291    -1.140636455
Si       -3.666252325    12.553353486    -0.532361747
 C       -3.137648729    13.363450987     1.028082424
 C       -2.416762405    12.738318680     1.968493995
 C       -1.972122453    13.341045760     3.227049671
 C       -1.221037741    12.551164585     4.111727330
 C       -0.771304127    13.063253857     5.317733684
 C       -1.023054542    14.407900758     5.650550967
 C       -1.769714411    15.202385209     4.770740706
 C       -2.254122729    14.662025622     3.582749506
 N       -0.529147528    14.862036755     6.908128946
 C        0.947186104    14.891592981     6.992677145
 C       -1.151827766    16.092770972     7.425226036
 C        1.607299648    16.031435704     6.192862013
 C        2.921269061    15.605784584     5.511687488
 N        2.767754399    14.921366782     4.209972483
 C        1.881492184    15.540824047     3.300834459
 C        1.958428008    16.938630551     3.124055336
 C        1.105220582    17.579764100     2.240937138
 C        0.158402753    16.860741598     1.498272470
 C        0.107088614    15.472933833     1.652786266
 C        0.969349549    14.813222747     2.518934342
 C        2.670969991    13.456883838     4.321855546
 C       -0.720803822    17.583448296     0.577950717
 C       -1.655857230    16.990505820    -0.174922822
Si       -2.785552667    17.830573591    -1.342756823
 C       -2.469405040    17.120661456    -3.017168759
 C       -1.280574381    16.432545151    -3.281396045
 C       -1.039457968    15.895442992    -4.545248039
 C       -1.979547800    16.032695542    -5.570137974
 C       -3.168955598    16.723905275    -5.302934362
 C       -3.411775706    17.264076091    -4.042548434
 C       -1.770316825    15.487538479    -6.907414404
 C       -0.677666301    14.806665065    -7.292681338
 C       -0.467720831    14.261203856    -8.629779923
 C       -1.405696975    14.400058606    -9.656552950
 C       -1.164108531    13.862617763   -10.920311717
 C        0.026613273    13.178437056   -11.187821586
 C        0.968151747    13.037936604   -10.160514178
 C        0.721354736    13.570189361    -8.897339399
Si        0.346443731    12.466782609   -12.861338902
 C       -0.492017835    13.506541214   -14.169319397
 C        2.184234469    12.431231024   -13.202485328
 C       -0.338032760    10.728637038   -12.900402986
 C       -4.540132678    17.466723913    -0.811354626
 C       -2.496468042    19.672814172    -1.397873063
 C       -2.969688310    13.482575411    -1.993150721
 C       -5.531821388    12.572264625    -0.624770807
 C       -0.632983942    -0.854184891    -1.536486357
 C       -0.605827598    -0.903097873     1.520688739
 H        1.045429128     2.567068948    -1.130213636
 H        0.200965626     4.842365890    -1.119708252
 H       -3.267176899     3.590251336     1.100688539
 H       -2.455404395     1.298081457     1.121959489
 H       -3.089746044     5.846691877     0.533682363
 H       -0.579023720     6.707790552    -1.060980715
 H       -3.868153687     7.712850116     0.593192919
 H       -4.710995473     9.989841136     0.607069282
 H       -1.218329514    11.255065125    -1.662697600
 H       -0.400218947     8.963649117    -1.627274938
 H       -3.460517253    14.408279501     1.145588647
 H       -2.091719890    11.691369831     1.862721909
 H       -1.003743890    11.513151488     3.856817532
 H       -0.235771677    12.428319952     6.020298953
 H       -1.970176411    16.245084419     4.999157466
 H       -2.842157577    15.293979869     2.915335940
 H       -0.837999984    16.231273111     8.474432270
 H       -2.249616661    15.970868920     7.426573045
 H       -0.898483046    17.005243973     6.863834261
 H        3.438887893    13.085721376     5.019993764
 H        2.891321286    13.008607599     3.335064315
 H        1.683418195    13.097136890     4.657562606
 H        2.693575803    17.515166235     3.678181211
 H        1.177356955    18.660882096     2.121966991
 H       -0.618049693    14.882208034     1.085478371
 H        0.890322550    13.732738532     2.610374696
 H       -0.539917336    18.665515844     0.562070824
 H       -1.809875367    15.898256269    -0.130838811
 H       -0.507498130    16.293968313    -2.517095709
 H       -0.106303005    15.365145207    -4.727281890
 H       -3.913269404    16.842220116    -6.087989071
 H       -4.356366216    17.793578475    -3.892661091
 H       -2.588255168    15.672261355    -7.609929888
 H        0.140774522    14.622457570    -6.590244332
 H       -2.338363668    14.931687499    -9.475954617
 H       -1.936340083    14.002843889   -11.681783637
 H        1.916184903    12.514108598   -10.310723335
 H        1.464878813    13.448730771    -8.111608829
 H        1.213435705    14.972920667     8.070346368
 H        1.332819032    13.903918392     6.657222626
 H        0.898730716    16.410751003     5.426203665
 H        1.799329918    16.893853915     6.856011677
 H        3.551321637    16.509091744     5.326694553
 H        3.518567265    14.959742687     6.190791246
 H        2.268556962    -1.027933236     0.064658352
 H        2.269365938     0.566095661     0.860790778
 H        2.279403559     0.455646487    -0.918294766
 H       -0.261050790    13.134898130   -15.183505936
 H       -0.158620679    14.558953678   -14.117687889
 H       -1.590338413    13.498764759   -14.057697083
 H        2.630380286    13.436547214   -13.094825412
 H        2.716409318    11.754004887   -12.511831805
 H        2.392615748    12.084178618   -14.230207066
 H       -1.424815529    10.719999863   -12.701103892
 H       -0.174628623    10.253255398   -13.883439425
 H        0.141035700    10.090261039   -12.136317976
 H       -4.754548807    16.383028549    -0.840631365
 H       -4.722939186    17.813029199     0.222014323
 H       -5.273934503    17.968718144    -1.464960389
 H       -1.461750852    19.908251670    -1.708028887
 H       -3.173470118    20.165098371    -2.118589831
 H       -2.664986134    20.138688771    -0.410847782
 H       -1.907874466    13.753287408    -1.851038792
 H       -3.038151148    12.881678415    -2.918833560
 H       -3.524108068    14.419775937    -2.182786233
 H       -5.990497581    12.102657493     0.263083806
 H       -5.922317679    13.603197030    -0.691019256
 H       -5.890066378    12.023848936    -1.514775222
 H       -0.285901622    -0.343251620    -2.452664345
 H       -0.287534750    -1.901684131    -1.586541505
 H       -1.737510507    -0.864434575    -1.564675963
 H       -0.318549726    -0.368312595     2.444134282
 H       -1.704805423    -1.008598730     1.524142721
 H       -0.177041720    -1.919386612     1.578779045

