139   

Si        0.000000000     0.000000000     0.000000000
 C        1.869492924     0.000000000     0.000000000
 C       -0.599215242     1.745547896     0.000000000
 C       -0.138067353     2.635853648    -0.977456264
 C       -0.577267906     3.958296972    -0.996285162
 C       -1.493395689     4.419595285    -0.046090240
 C       -1.956180990     3.526829294     0.928467986
 C       -1.514543334     2.205781461     0.953056279
 C       -1.980471498     5.794177810    -0.027338099
 C       -1.612041043     6.747132356    -0.899844366
 C       -2.101185469     8.121427816    -0.878374382
 C       -3.017296151     8.581618562     0.072276159
 C       -3.457087361     9.903861962     0.054274103
 C       -2.971460461    10.798918595    -0.906455722
 C       -2.050601035    10.342473473    -1.856043790
 C       -1.624601085     9.016511855    -1.843871137
Si       -3.562875556    12.542899511    -0.916456033
 C       -3.306896131    13.363800184     0.699416436
 C       -2.763640319    12.829631670     1.800664188
 C       -2.598380995    13.568100060     3.057100829
 C       -2.017404479    12.923651540     4.159959861
 C       -1.844977888    13.589356841     5.363716533
 C       -2.275388200    14.921155202     5.501417243
 C       -2.856929763    15.570656112     4.406170664
 C       -3.003503859    14.897512368     3.197676599
 N       -2.066355759    15.545690546     6.769148640
 C       -2.944761225    15.007894382     7.826762136
 C       -2.038588524    17.018729952     6.744313641
 C       -4.438976781    15.339414940     7.640389460
 C       -5.339241991    14.414116611     8.479890733
 N       -5.922303192    13.279694357     7.735096655
 C       -5.010426831    12.318712708     7.245260490
 C       -4.002698823    11.836751457     8.107160326
 C       -3.091689488    10.894066038     7.659841904
 C       -3.204480641    10.329172181     6.381669971
 C       -4.229069514    10.778335290     5.544045967
 C       -5.119102681    11.760799799     5.959817719
 C       -6.985191813    13.705401257     6.807880056
 C       -2.215516807     9.336845124     5.956771561
 C       -2.230570366     8.736894050     4.759891213
Si       -1.025155306     7.490273611     4.169399224
 C       -0.239302541     8.201975520     2.660192138
 C       -0.308201611     9.578309945     2.412481950
 C        0.283096244    10.120569384     1.275127618
 C        0.968466080     9.301945635     0.368777687
 C        1.042350969     7.929365999     0.622471896
 C        0.444927736     7.382427987     1.757404926
 C        1.571263159     9.917027282    -0.808423111
 C        2.248368809     9.249004251    -1.757231041
 C        2.849700601     9.868313208    -2.933143139
 C        2.773444123    11.241364691    -3.183000697
 C        3.362781553    11.792478985    -4.320109213
 C        4.033314164    10.979606274    -5.240168386
 C        4.108537977     9.602896868    -4.993306661
 C        3.525987016     9.056060077    -3.852732496
Si        4.815122184    11.704568171    -6.747049505
 C        3.917669010    13.265988677    -7.249847194
 C        6.598143191    12.100128870    -6.352027912
 C        4.734859930    10.480849433    -8.158503796
 C        0.299974525     7.134524577     5.433314880
 C       -1.953048771     5.925180544     3.748652038
 C       -2.643241274    13.538568745    -2.204794191
 C       -5.392238759    12.542398851    -1.300198924
 C       -0.639883720    -0.846685040    -1.538188258
 C       -0.613024160    -0.912624862     1.511670158
 H        0.574741200     2.331509667    -1.748835309
 H       -0.201546504     4.632202360    -1.764499294
 H       -2.672603014     3.864601147     1.675668745
 H       -1.909463379     1.555329848     1.737955972
 H       -2.695509340     6.017053221     0.769894014
 H       -0.896141124     6.528976312    -1.697977692
 H       -3.394151539     7.905828191     0.837855884
 H       -4.180036828    10.206097347     0.817906081
 H       -1.634226414    10.996900250    -2.627017269
 H       -0.904180573     8.679863336    -2.588287271
 H       -3.660206331    14.408952293     0.696531300
 H       -2.395203689    11.795119233     1.844241394
 H       -1.696764411    11.882958629     4.077820064
 H       -1.380054319    13.084365193     6.209725040
 H       -3.199410185    16.597344226     4.488936685
 H       -3.452460798    15.424227740     2.355459154
 H       -1.668537299    17.377469573     7.720518521
 H       -3.010258073    17.494172490     6.544984870
 H       -1.316772236    17.354103290     5.978703983
 H       -7.681787160    14.380147378     7.333770794
 H       -7.570404733    12.821038375     6.496887263
 H       -6.613952621    14.221711457     5.907704338
 H       -3.937341718    12.206844298     9.127003628
 H       -2.293723101    10.566374000     8.326751962
 H       -4.334308132    10.364829686     4.539176180
 H       -5.880107967    12.103365602     5.265418857
 H       -1.452010638     9.130158974     6.717163006
 H       -3.017972936     8.964428407     4.021549856
 H       -0.824161976    10.265283776     3.091154209
 H        0.207498213    11.191371433     1.089293523
 H        1.568002603     7.272507731    -0.067789617
 H        0.526983210     6.300708108     1.897553184
 H        1.431236212    11.000413122    -0.879259171
 H        2.388039305     8.166768000    -1.686000382
 H        2.252148303    11.895432821    -2.485636276
 H        3.273551137    12.873457729    -4.458851071
 H        4.618775989     8.918790003    -5.676795862
 H        3.597761562     7.984344292    -3.677192670
 H       -2.794981660    13.903006411     7.853457315
 H       -2.580130457    15.397608240     8.802176829
 H       -4.626470980    16.393540438     7.909514661
 H       -4.704275281    15.256480874     6.567542740
 H       -4.783623783    14.011614947     9.356164959
 H       -6.184145123    14.997896715     8.912654225
 H        2.271027068    -1.028249082     0.029949334
 H        2.268541625     0.539326113     0.878249725
 H        2.276335287     0.490494557    -0.901631502
 H        4.326263062    13.675509367    -8.190820473
 H        4.005492125    14.054186780    -6.481748502
 H        2.841537712    13.074215921    -7.411064438
 H        6.674242412    12.823921399    -5.520529860
 H        7.153360890    11.193789392    -6.050244236
 H        7.116888395    12.535896977    -7.223800543
 H        3.693405999    10.170374136    -8.358576733
 H        5.135653094    10.918598740    -9.089996297
 H        5.319211808     9.569115422    -7.944084180
 H        0.867162600     8.047482353     5.691212532
 H       -0.127915699     6.729545737     6.366842140
 H        1.027157497     6.394671061     5.052355547
 H       -2.799817523     6.126685950     3.069246045
 H       -1.292704104     5.189076670     3.253918459
 H       -2.362758170     5.448184358     4.656736097
 H       -1.556224313    13.549355519    -2.003494319
 H       -2.795100587    13.126819895    -3.218144313
 H       -2.986326854    14.587865057    -2.220231517
 H       -5.963233880    11.984846457    -0.536303886
 H       -5.799721742    13.567206717    -1.339043766
 H       -5.593297633    12.064828327    -2.276076104
 H       -0.293511988    -0.336530051    -2.454529569
 H       -0.300753793    -1.896149889    -1.590822427
 H       -1.744842776    -0.851185581    -1.561770803
 H       -0.278863613    -0.421379808     2.442978884
 H       -1.716013554    -0.964696284     1.535343295
 H       -0.233943130    -1.950182672     1.531128587

