139   

Si        0.000000000     0.000000000     0.000000000
 C        1.869376834     0.000000000     0.000000000
 C       -0.624569959     1.737395438     0.000000000
 C        0.022468820     2.716274637    -0.763031824
 C       -0.440400096     4.031202852    -0.770540320
 C       -1.563641386     4.397797953    -0.023288843
 C       -2.212728261     3.415790255     0.735935241
 C       -1.750695546     2.101586740     0.747623048
 C       -2.083067217     5.761449172    -0.001374567
 C       -1.552105996     6.792139159    -0.680915815
 C       -2.069405808     8.156559662    -0.660812459
 C       -3.192295760     8.526420464     0.085289113
 C       -3.652367881     9.842656993     0.075318029
 C       -2.992141548    10.819606170    -0.677286609
 C       -1.866823850    10.453132458    -1.425531541
 C       -1.414248593     9.136026066    -1.418701163
Si       -3.596335364    12.563132733    -0.694386561
 C       -2.213146050    13.647376921    -1.211528862
 C       -2.211774186    14.444099627    -2.288304682
 C       -1.088832510    15.299982382    -2.675194357
 C       -1.203125065    16.092514383    -3.825700298
 C       -0.169114430    16.919421322    -4.234442202
 C        1.010587293    17.024491648    -3.466142026
 C        1.124495392    16.229627359    -2.308707247
 C        0.098957307    15.368887827    -1.941273297
 N        2.058461562    17.864114608    -3.882763453
 C        1.702566946    19.039467975    -4.696710462
 C        3.111742408    18.156048377    -2.894910619
 C        0.832122955    20.055147656    -3.939565994
 C        0.417102479    21.207218453    -4.868766178
 N       -0.320661557    22.275327992    -4.170532399
 C        0.370738043    22.979045707    -3.166440878
 C        1.766195385    23.166494754    -3.265647198
 C        2.454350179    23.857913404    -2.281780075
 C        1.782709454    24.431499884    -1.192839705
 C        0.396687710    24.272762364    -1.112306952
 C       -0.305873249    23.567128956    -2.080507798
 C       -1.716029660    21.902201498    -3.881180588
 C        2.560660370    25.150623060    -0.183208305
 C        2.035323585    25.739775655     0.899167847
Si        3.000671241    26.642342106     2.168775385
 C        4.793606622    26.616473948     1.732748113
 C        5.749696651    26.039112806     2.574886648
 C        7.096589276    26.035516969     2.217134351
 C        7.519206275    26.603628141     1.008940868
 C        6.561147038    27.178660172     0.167995916
 C        5.214050826    27.186465606     0.524289137
 C        8.940104565    26.575873747     0.677663111
 C        9.473346915    27.087228493    -0.444879383
 C       10.893994079    27.060113815    -0.777313071
 C       11.854035723    26.486295267     0.060774047
 C       13.201853054    26.482748222    -0.297046125
 C       13.618926970    27.044973141    -1.508267072
 C       12.658441264    27.619162825    -2.350577623
 C       11.314136346    27.628943250    -1.986889575
Si       15.402629485    27.042305537    -1.985765611
 C       16.274305638    25.583707801    -1.206223229
 C       15.564779823    26.920430323    -3.844274109
 C       16.173775362    28.634689872    -1.385205956
 C        2.421344120    28.417582578     2.230523701
 C        2.703090711    25.826974426     3.823229050
 C       -5.042733492    12.677749429    -1.869483702
 C       -4.124928101    13.078565284     1.022051119
 C       -0.633206602    -0.850812227    -1.538570227
 C       -0.607360086    -0.909077757     1.516506382
 H        0.904155116     2.490614583    -1.369439746
 H        0.083746176     4.774616572    -1.368747278
 H       -3.089338432     3.679148292     1.325013289
 H       -2.297444587     1.380090404     1.360833683
 H       -2.967553865     5.904186759     0.626308451
 H       -0.667812938     6.648314369    -1.309092252
 H       -3.719477737     7.784444770     0.682012913
 H       -4.536232913    10.071821432     0.676636431
 H       -1.313120260    11.177156939    -2.033010153
 H       -0.539403815     8.868497011    -2.008701072
 H       -1.341393083    13.598037021    -0.538967835
 H       -3.065753048    14.516081277    -2.974623806
 H       -2.116207040    16.050813509    -4.420529990
 H       -0.280834280    17.490325911    -5.151371504
 H        2.017768757    16.270486836    -1.693166972
 H        0.223091647    14.750786885    -1.050085057
 H        3.856758779    18.844990258    -3.327440641
 H        3.647533581    17.221342814    -2.648738664
 H        2.726270077    18.604323621    -1.964016451
 H       -2.141709797    21.344288100    -4.732018256
 H       -2.321071358    22.820003583    -3.768017670
 H       -1.826172470    21.285945644    -2.973476614
 H        2.315306630    22.763914709    -4.111692243
 H        3.536533463    23.968500034    -2.366563296
 H       -0.151553698    24.709491228    -0.276245935
 H       -1.381814937    23.469290570    -1.977378784
 H        3.639812449    25.158785049    -0.397052392
 H        0.952631326    25.714614122     1.094818809
 H        5.478666205    25.577150544     3.528133520
 H        7.825636364    25.583577162     2.887040539
 H        6.863187963    27.627619690    -0.776576741
 H        4.511466843    27.653344333    -0.173710157
 H        9.575567971    26.094787996     1.427053759
 H        8.838048257    27.568905189    -1.194126737
 H       11.555063128    26.036727466     1.006020639
 H       13.905727696    26.021519177     0.401403633
 H       12.924842155    28.072926879    -3.309204227
 H       10.583196801    28.082471007    -2.653880734
 H        2.645280915    19.519200821    -5.046391060
 H        1.187906281    18.687893871    -5.619960490
 H       -0.064140191    19.556628934    -3.522341484
 H        1.381247461    20.450704640    -3.062497880
 H        1.308610224    21.658369681    -5.361296314
 H       -0.220811587    20.827263191    -5.698735478
 H        2.269258706    -1.027767069     0.059797386
 H        2.268735808     0.562754502     0.863413074
 H        2.279144635     0.461649674    -0.915309739
 H       17.325969529    25.523031458    -1.538652965
 H       15.784591457    24.631756553    -1.480309085
 H       16.280657360    25.650981103    -0.104234331
 H       15.048021309    26.023935793    -4.232202815
 H       15.132863044    27.800149519    -4.352486799
 H       16.624216962    26.850676494    -4.148896328
 H       16.092754724    28.731509756    -0.287446764
 H       17.245090832    28.687593254    -1.647170091
 H       15.676543210    29.515244435    -1.830286720
 H        2.558854756    28.920629505     1.256291727
 H        1.350506317    28.485020802     2.491111810
 H        2.986632714    28.995041032     2.984179488
 H        3.029120168    24.770892232     3.815403095
 H        3.249669960    26.343184470     4.632219574
 H        1.630783643    25.837904471     4.088638553
 H       -4.751986716    12.383071966    -2.894410212
 H       -5.866197905    12.010229643    -1.558293807
 H       -5.445231715    13.705100786    -1.915042676
 H       -3.307060485    12.941917620     1.752611631
 H       -4.415220232    14.144619811     1.045782723
 H       -4.989609885    12.490457641     1.375271472
 H       -0.287907090    -0.337115011    -2.453676290
 H       -0.286824538    -1.897820650    -1.591581637
 H       -1.737836204    -0.862319747    -1.565023024
 H       -0.311343125    -0.385009892     2.443181148
 H       -1.707231412    -1.005466441     1.522539409
 H       -0.187349807    -1.929667716     1.564252203

