139   

Si        0.000000000     0.000000000     0.000000000
 C        1.869402311     0.000000000     0.000000000
 C       -0.638297677     1.732648364     0.000000000
 C        0.127036638     2.778618010    -0.526253754
 C       -0.359622268     4.085430947    -0.523858829
 C       -1.621593499     4.376887876     0.001451292
 C       -2.388473216     3.327652635     0.524640452
 C       -1.905515044     2.021421130     0.522304701
 C       -2.170743405     5.728809566     0.024717530
 C       -1.537942515     6.816972249    -0.445561659
 C       -2.081237264     8.170652346    -0.425254042
 C       -3.341276556     8.473194339     0.097319267
 C       -3.819326538     9.784185568     0.095097123
 C       -3.046705429    10.821440527    -0.434166607
 C       -1.782146290    10.519389140    -0.959457713
 C       -1.306448938     9.211855504    -0.953494721
Si       -3.645685082    12.567582998    -0.454428171
 C       -2.338791189    13.707795879     0.136899926
 C       -1.115254399    13.332938293     0.531092257
 C       -0.076240032    14.248019985     1.002162017
 C        1.162708164    13.708516957     1.383643467
 C        2.184341667    14.523514993     1.837462958
 C        2.010521458    15.923433931     1.874117009
 C        0.774079652    16.466190766     1.490271487
 C       -0.258832025    15.629060840     1.081259420
 N        3.083840543    16.712767690     2.345944934
 C        4.397986255    16.425103562     1.728483717
 C        2.822492648    18.152156469     2.509782118
 C        4.379206341    16.093234577     0.225907674
 C        3.726440717    17.203919616    -0.615090518
 N        3.705696308    16.912287803    -2.058534811
 C        2.869384514    15.853898275    -2.481745559
 C        1.546474446    15.786151471    -1.998352027
 C        0.703171110    14.760507889    -2.395251543
 C        1.128234737    13.784234749    -3.308894569
 C        2.431201368    13.869857036    -3.805271200
 C        3.290971202    14.888912491    -3.412273261
 C        5.042803964    16.981944178    -2.670959013
 C        0.205681709    12.715187106    -3.703578221
 C        0.526342375    11.743488235    -4.568244088
Si       -0.530266336    10.359943035    -5.138980595
 C       -0.698470431    10.504386091    -6.972145080
 C       -0.493898876    11.733856004    -7.609693574
 C       -0.621256336    11.840653791    -8.992451608
 C       -0.964572656    10.726249128    -9.768862988
 C       -1.173457896     9.501474865    -9.127992993
 C       -1.043033619     9.390163473    -7.744338482
 C       -1.086076598    10.888058738   -11.214167503
 C       -1.404491314     9.902611958   -12.070536099
 C       -1.525850015    10.064996662   -13.515711181
 C       -1.317239286    11.288998899   -14.157480732
 C       -1.443871446    11.398963125   -15.541764158
 C       -1.774347079    10.282773824   -16.317723410
 C       -1.982936440     9.054926812   -15.677252566
 C       -1.863031350     8.949650643   -14.293708142
Si       -1.942267104    10.427244396   -18.150623305
 C       -0.807691118    11.766777433   -18.794019852
 C       -1.488226616     8.806788150   -18.965182456
 C       -3.717115407    10.858411147   -18.545521718
 C        0.304435593     8.755414634    -4.670558147
 C       -2.253948033    10.407322733    -4.428971587
 C       -4.068153419    13.025166820    -2.216626601
 C       -5.146188995    12.770826091     0.637996882
 C       -0.631731151    -0.858474461    -1.534560213
 C       -0.604584756    -0.897797555     1.524339457
 H        1.121871192     2.614048229    -0.949525391
 H        0.257008309     4.881298831    -0.938101151
 H       -3.374592893     3.531992551     0.938005224
 H       -2.549535021     1.244579092     0.943729841
 H       -3.168631824     5.810506765     0.465387051
 H       -0.539878505     6.732355896    -0.886257851
 H       -3.963620292     7.683152418     0.513291745
 H       -4.810540960     9.958295473     0.522098217
 H       -1.131508549    11.288680393    -1.394083430
 H       -0.319567399     8.999272803    -1.362181795
 H       -2.641756068    14.766114237     0.143627845
 H       -0.792216043    12.281013669     0.552052015
 H        1.320777665    12.630012633     1.332793295
 H        3.122718576    14.086654050     2.169619856
 H        0.605915122    17.537972516     1.508260314
 H       -1.217223073    16.069220899     0.803786311
 H        3.666733909    18.611270915     3.053305298
 H        1.928035386    18.290824802     3.143972679
 H        2.676627244    18.697758573     1.564719010
 H        5.556196219    17.895845245    -2.326955785
 H        4.932658262    17.069689999    -3.767407577
 H        5.685324993    16.116317396    -2.444951563
 H        1.185164177    16.534613771    -1.295781869
 H       -0.307829342    14.714695871    -1.983383764
 H        2.791976306    13.127196345    -4.518655178
 H        4.295411904    14.910745669    -3.821893617
 H       -0.778795441    12.788542746    -3.225075013
 H        1.530250425    11.711557550    -5.026844077
 H       -0.226757544    12.638535006    -7.052952440
 H       -0.453514942    12.803323700    -9.472004273
 H       -1.441245621     8.620450050    -9.708227796
 H       -1.216992563     8.406688566    -7.299034275
 H       -0.894854726    11.902076546   -11.578108205
 H       -1.595709969     8.888776947   -11.706828561
 H       -1.053975043    12.171779476   -13.577278180
 H       -1.270284317    12.383209713   -15.985516219
 H       -2.242560121     8.148799806   -16.231428239
 H       -2.031149494     7.986885483   -13.814491380
 H        5.083386854    17.279557591     1.916983273
 H        4.827546481    15.558129496     2.287195316
 H        5.413747063    15.910391310    -0.117797593
 H        3.838346319    15.140112860     0.048170657
 H        2.676817475    17.373043482    -0.278493487
 H        4.258973918    18.169578621    -0.466559248
 H        2.267768338    -1.027548978     0.075785884
 H        2.269978478     0.574728220     0.854682301
 H        2.279306178     0.444698504    -0.923696185
 H       -0.840446722    11.822167566   -19.896648143
 H        0.241091561    11.576346915   -18.502294638
 H       -1.086632896    12.761808244   -18.405505700
 H       -0.470880793     8.486049230   -18.676421002
 H       -2.185099939     7.997713620   -18.684937121
 H       -1.509373825     8.893641571   -20.066051615
 H       -4.013664400    11.811917238   -18.072532865
 H       -3.873953693    10.961778331   -19.633497324
 H       -4.410901393    10.080268233   -18.179750502
 H        1.271507075     8.637237747    -5.190579445
 H        0.503999993     8.711100190    -3.584831290
 H       -0.323073091     7.883748730    -4.927766389
 H       -2.728944171    11.393778778    -4.574811850
 H       -2.902864845     9.655927521    -4.915096400
 H       -2.260245792    10.184886535    -3.345629018
 H       -3.182742621    12.957655295    -2.875993823
 H       -4.840187554    12.351389376    -2.629542894
 H       -4.455474565    14.056862768    -2.284137202
 H       -4.928654071    12.463733593     1.677518867
 H       -5.482414285    13.822430067     0.670659883
 H       -5.996220567    12.164329163     0.279572576
 H       -0.285481417    -0.348331916    -2.451571722
 H       -0.283425249    -1.905182923    -1.582892128
 H       -1.736092380    -0.871680704    -1.562912078
 H       -0.307272188    -0.364322663     2.445541900
 H       -1.704392593    -0.992987495     1.535123161
 H       -0.184344746    -1.917673617     1.580747373

