139   

Si        0.000000000     0.000000000     0.000000000
 C        1.869463559     0.000000000     0.000000000
 C       -0.577366568     1.753176995     0.000000000
 C       -0.298113248     2.569194972     1.102964988
 C       -0.722920417     3.896537474     1.127764232
 C       -1.431582867     4.439371164     0.051768642
 C       -1.708728332     3.622206664    -1.051002790
 C       -1.287574245     2.294286647    -1.077521317
 C       -1.895225803     5.822238326     0.034833503
 C       -1.697773264     6.706769503     1.027059945
 C       -2.164160331     8.088755458     1.003963970
 C       -2.871950342     8.622790450    -0.076142184
 C       -3.300620291     9.949014817    -0.059933492
 C       -3.022874480    10.773663404     1.035600163
 C       -2.307526584    10.243795647     2.116279455
 C       -1.881317207     8.917962537     2.097494733
Si       -3.591143193    12.528535890     1.054956437
 C       -2.160147500    13.563346102     0.561655979
 C       -1.615017026    14.520190870     1.324144608
 C       -0.471495378    15.343974481     0.924635221
 C        0.004368856    16.314942455     1.819469129
 C        1.082192707    17.121614159     1.493953647
 C        1.724423377    16.980695692     0.246703369
 C        1.272853841    15.986077201    -0.636051722
 C        0.211446178    15.159423023    -0.279513060
 N        2.822746404    17.829870541    -0.038977861
 C        2.560748971    19.276360623     0.128812676
 C        3.562687997    17.535293969    -1.278300529
 C        1.492065710    19.873010176    -0.811826215
 C        0.164175373    20.128307976    -0.068101379
 N       -0.994425993    20.444833573    -0.920084252
 C       -1.615053780    19.378604492    -1.612846484
 C       -1.110245539    18.069769223    -1.564414130
 C       -1.736358811    17.044554248    -2.251361444
 C       -2.930215009    17.266959090    -2.949759045
 C       -3.455017625    18.562245671    -2.972814124
 C       -2.811542913    19.607868994    -2.320028344
 C       -0.815600585    21.677515765    -1.707860674
 C       -3.515532052    16.121611320    -3.644444271
 C       -4.644794244    16.126241683    -4.362834643
Si       -5.321196637    14.643403935    -5.210349332
 C       -4.233093929    13.175089568    -4.929247528
 C       -3.889007373    12.309697567    -5.973742520
 C       -3.067154553    11.208508629    -5.739266699
 C       -2.567545429    10.943842957    -4.457752551
 C       -2.919294428    11.804625370    -3.414147625
 C       -3.747900086    12.900255759    -3.644949202
 C       -1.710722813     9.780248609    -4.257057090
 C       -1.177524793     9.414596477    -3.078609610
 C       -0.320947073     8.249450004    -2.883511036
 C        0.029241762     7.390191372    -3.929230157
 C        0.850218585     6.287511020    -3.700972144
 C        1.350840406     6.025350548    -2.420084771
 C        1.007521159     6.887642130    -1.372895990
 C        0.182244317     7.986418422    -1.603705543
Si        2.436060226     4.557104533    -2.148004284
 C        4.111663645     4.924287329    -2.893724589
 C        2.633932944     4.204827699    -0.325481382
 C        1.683304491     3.068945640    -2.990395341
 C       -7.005533873    14.263522658    -4.495389883
 C       -5.467897592    15.024103794    -7.032850449
 C       -4.979323797    12.795995336    -0.165884877
 C       -4.204605620    12.972842938     2.762406508
 C       -0.617000944    -0.899121171    -1.517946343
 C       -0.646760393    -0.854154356     1.530544026
 H        0.251788330     2.200578619     1.973293084
 H       -0.498761004     4.510067338     1.998556140
 H       -2.253273623     4.029072295    -1.901968910
 H       -1.538065601     1.702596011    -1.962199650
 H       -2.427681564     6.114538833    -0.876406563
 H       -1.161463361     6.418156352     1.934901470
 H       -3.096880118     8.002783126    -0.943771450
 H       -3.863223180    10.302010912    -0.930086175
 H       -2.057556877    10.842602800     2.996180504
 H       -1.325046576     8.523112834     2.945134617
 H       -1.761903726    13.337255710    -0.440583582
 H       -1.994086405    14.770575123     2.323694249
 H       -0.486088567    16.445340277     2.784499722
 H        1.448237765    17.852039362     2.211248429
 H        1.748877858    15.840708850    -1.601648193
 H       -0.098516987    14.369527032    -0.966869780
 H        4.472831223    18.158409947    -1.311251350
 H        2.987616428    17.712360782    -2.201162749
 H        3.897279289    16.482438536    -1.261301302
 H       -0.346895910    22.455129534    -1.082542967
 H       -1.802456874    22.063008675    -2.018171990
 H       -0.200159653    21.531567539    -2.609811600
 H       -0.212630455    17.844231149    -0.995398215
 H       -1.298750055    16.044411599    -2.223704569
 H       -4.383086335    18.760156823    -3.508179473
 H       -3.243718715    20.603815479    -2.345361111
 H       -2.891803287    15.218239382    -3.537291849
 H       -5.248382734    17.037187703    -4.479288780
 H       -4.241188576    12.466516912    -6.996633417
 H       -2.810659090    10.549560598    -6.566260658
 H       -2.537050480    11.623372817    -2.410246559
 H       -4.001400819    13.531304034    -2.784313157
 H       -1.516162727     9.195939878    -5.160428650
 H       -1.370637548     9.996320398    -2.169941744
 H       -0.342543832     7.574757740    -4.934942670
 H        1.082833163     5.648051223    -4.556521635
 H        1.363155466     6.729497242    -0.350885214
 H       -0.079952888     8.641779176    -0.772138269
 H        2.288594703    19.454876111     1.193323103
 H        3.529186393    19.806704765    -0.018591080
 H        1.860743430    20.817423680    -1.249515721
 H        1.319972691    19.203810459    -1.676198345
 H       -0.102005091    19.246457151     0.563372713
 H        0.288316613    20.979403085     0.641075594
 H        2.272547969    -1.027491277    -0.015253136
 H        2.273937098     0.505218082     0.894784283
 H        2.267829626     0.529420693    -0.885087731
 H        4.798285498     4.067694684    -2.780222482
 H        4.582672280     5.797644823    -2.407883197
 H        4.032233555     5.150329706    -3.971583024
 H        3.130493201     5.036716860     0.202440303
 H        1.647829269     4.040844079     0.151846337
 H        3.235201051     3.294469059    -0.156705567
 H        1.617848930     3.203227162    -4.083163882
 H        2.274447846     2.156870566    -2.798674911
 H        0.658402130     2.886482124    -2.613999667
 H       -6.945721505    14.067272290    -3.409483618
 H       -7.706573320    15.103439677    -4.643694569
 H       -7.448652820    13.369705135    -4.969521902
 H       -4.475611451    15.214573951    -7.481680810
 H       -5.934429724    14.191419428    -7.587384425
 H       -6.085180093    15.923803652    -7.205851831
 H       -4.730375876    12.428548062    -1.177617720
 H       -5.895926817    12.270250237     0.157046966
 H       -5.226580400    13.870672442    -0.254772538
 H       -3.408047503    12.887952942     3.521905578
 H       -4.587052490    14.009012240     2.794055102
 H       -5.029140736    12.306661593     3.074339392
 H       -0.235743379    -0.439364039    -2.446930316
 H       -0.290869291    -1.954611428    -1.515007486
 H       -1.720541380    -0.895930924    -1.568972551
 H       -0.289868493    -0.363741181     2.453285003
 H       -1.751712654    -0.842401752     1.557587096
 H       -0.324874258    -1.909710781     1.568619162

