139   

Si        0.000000000     0.000000000     0.000000000
 C        1.869469432     0.000000000     0.000000000
 C       -0.640566419     1.730297015     0.000000000
 C        0.163062015     2.801906778    -0.401344469
 C       -0.335748654     4.104566321    -0.395808099
 C       -1.648644675     4.361933355     0.005173077
 C       -2.454877240     3.286027732     0.400374210
 C       -1.960348228     1.985265979     0.394662652
 C       -2.218865407     5.703340360     0.029503766
 C       -1.569438183     6.826231840    -0.321173765
 C       -2.166845568     8.157221948    -0.286621184
 C       -3.487767996     8.368070312     0.122671205
 C       -4.030082999     9.650581448     0.144988665
 C       -3.259201616    10.752352839    -0.243874218
 C       -1.938852645    10.545525175    -0.656265562
 C       -1.399733961     9.260742214    -0.679250263
Si       -4.013687659    12.433468032    -0.200229481
 C       -2.817733128    13.664160877    -0.837646035
 C       -3.037672077    14.443439424    -1.904706381
 C       -2.086243368    15.429062600    -2.419520380
 C       -2.444400796    16.181071898    -3.548304309
 C       -1.584299276    17.127498680    -4.078960506
 C       -0.306835247    17.321112640    -3.513786591
 C        0.053234196    16.570581107    -2.383496443
 C       -0.837849124    15.654579296    -1.835872648
 N        0.537776855    18.299503889    -4.089606709
 C        0.731430057    18.214358574    -5.550489102
 C        1.784998287    18.590221610    -3.363033441
 C        1.586257036    17.025842950    -6.028489580
 C        0.743303699    15.757856867    -6.268841283
 N        1.447823012    14.470499500    -6.095952500
 C        1.551418856    14.087875805    -4.710390045
 C        0.659250015    13.094068553    -4.284464073
 C        0.685651338    12.661412401    -2.965654479
 C        1.561915438    13.243002014    -2.037912175
 C        2.448961762    14.231283149    -2.475459774
 C        2.467129134    14.635176702    -3.806399633
 C        2.739224671    14.402972050    -6.804246034
 C        1.557621973    12.755995782    -0.654172519
 C        2.354337667    13.244525429     0.304798030
Si        2.403645702    12.687451863     2.048213381
 C        1.189503771    11.332028340     2.338624310
 C       -0.184644886    11.587435207     2.424467892
 C       -1.081605919    10.544543595     2.644651789
 C       -0.630168738     9.225736896     2.785202683
 C        0.741597673     8.974869827     2.696397867
 C        1.641579655    10.014792528     2.472718017
 C       -1.599402779     8.159189000     3.014896446
 C       -1.271573034     6.863898661     3.159485507
 C       -2.219342884     5.779904141     3.389604610
 C       -3.597336792     5.987444967     3.484780868
 C       -4.464020031     4.916833186     3.705863924
 C       -3.969846161     3.615263151     3.831188408
 C       -2.587480660     3.404266416     3.736221364
 C       -1.724656176     4.474849792     3.520772142
Si       -5.089517045     2.178193649     4.123898457
 C       -6.878884808     2.683289870     3.931365068
 C       -4.694505920     0.841806124     2.875538230
 C       -4.797723276     1.539956567     5.855371167
 C        4.142047826    12.121525318     2.433130095
 C        1.962432768    14.141901416     3.137442428
 C       -5.584207616    12.423336221    -1.210622557
 C       -4.391055261    12.866748584     1.579899460
 C       -0.635858272    -0.869103157    -1.526315579
 C       -0.608514420    -0.878564808     1.535756878
 H        1.197472248     2.661583245    -0.724855293
 H        0.309916380     4.923440488    -0.707633312
 H       -3.479426814     3.469395159     0.722927160
 H       -2.636763262     1.187209453     0.713149006
 H       -3.257407707     5.746611856     0.375466869
 H       -0.530271610     6.793910673    -0.657571749
 H       -4.104636607     7.525240321     0.429967653
 H       -5.067639672     9.751580144     0.473922413
 H       -1.296214992    11.374047431    -0.970583218
 H       -0.368648456     9.117029536    -0.997795939
 H       -1.879441680    13.731239820    -0.264044639
 H       -3.964419746    14.396832928    -2.492627497
 H       -3.418774804    16.027322142    -4.012563939
 H       -1.898098002    17.728692957    -4.928467757
 H        1.033785881    16.680944334    -1.930011902
 H       -0.534018243    15.085349783    -0.954280475
 H        2.291084860    19.447525928    -3.838344388
 H        2.492262777    17.746430101    -3.322965299
 H        1.536558487    18.893469240    -2.329458986
 H        2.565614033    14.599935024    -7.875397335
 H        3.134535772    13.375351022    -6.714670962
 H        3.507189038    15.099949135    -6.439543513
 H       -0.045548421    12.668697564    -4.999363660
 H        0.001330431    11.872642926    -2.650213618
 H        3.150492471    14.685266967    -1.776363977
 H        3.186899433    15.378608809    -4.135077510
 H        0.837772143    11.945165845    -0.474643464
 H        3.068080490    14.057366638     0.091585626
 H       -0.594972325    12.595782549     2.319954311
 H       -2.148300971    10.756141081     2.703316353
 H        1.119372319     7.958713654     2.797124439
 H        2.701139850     9.752024745     2.408786906
 H       -2.642361416     8.484312442     3.055874857
 H       -0.225375374     6.546102826     3.104843078
 H       -4.005468174     6.991657180     3.387928612
 H       -5.531693891     5.140353337     3.773185715
 H       -2.143047612     2.408419708     3.821048432
 H       -0.654095731     4.291579503     3.442488935
 H       -0.266373467    18.195663209    -6.042664230
 H        1.205770201    19.170695784    -5.872833037
 H        2.115699545    17.300769541    -6.958707520
 H        2.380747591    16.819859794    -5.287863274
 H       -0.144497967    15.746622598    -5.592935104
 H        0.341588400    15.762030899    -7.307452031
 H        2.268509227    -1.026856541     0.079020348
 H        2.271008797     0.578133259     0.851471729
 H        2.277433674     0.440690246    -0.926645328
 H       -7.553359564     1.818707162     4.063524511
 H       -7.074844394     3.104765365     2.929347517
 H       -7.169562591     3.442905875     4.678305918
 H       -4.852180505     1.201610996     1.842590749
 H       -3.644932095     0.507490931     2.958188153
 H       -5.338372222    -0.043060943     3.021195700
 H       -5.025185504     2.314157821     6.610458864
 H       -5.432830654     0.664307882     6.075172548
 H       -3.745977558     1.236524310     6.003373316
 H        4.473966336    11.325716783     1.742466769
 H        4.863647110    12.952997122     2.345758098
 H        4.215731360    11.726149048     3.462092345
 H        0.962869633    14.545080686     2.894094760
 H        1.951608361    13.848240222     4.202650371
 H        2.688777753    14.965672052     3.027132632
 H       -5.381452477    12.154622989    -2.263588844
 H       -6.312057066    11.690703309    -0.820483811
 H       -6.074697041    13.412705112    -1.205206329
 H       -3.475437092    12.876526621     2.198086421
 H       -4.852241543    13.867524432     1.655824708
 H       -5.090422655    12.141750222     2.030876692
 H       -0.291196823    -0.365198714    -2.447472078
 H       -0.288124829    -1.915997951    -1.568626417
 H       -1.740189213    -0.881449645    -1.553126062
 H       -0.289782302    -0.347461281     2.450897687
 H       -1.709989951    -0.949362600     1.556955361
 H       -0.209357861    -1.906497795     1.591455261

