139   

Si        0.000000000     0.000000000     0.000000000
 C        1.869242027     0.000000000     0.000000000
 C       -0.651477343     1.727177372     0.000000000
 C        0.110637007     2.787478840     0.501207855
 C       -0.392549728     4.088345878     0.495812042
 C       -1.669536665     4.358130024    -0.003486128
 C       -2.433663262     3.293927759    -0.500546688
 C       -1.933305287     1.994624704    -0.498013556
 C       -2.239349628     5.701161175    -0.030433332
 C       -1.617689701     6.807893077     0.410951704
 C       -2.193547894     8.148726059     0.381084144
 C       -3.472623235     8.406524130    -0.121021231
 C       -3.986205600     9.702551042    -0.131608814
 C       -3.225425936    10.771371882     0.354055410
 C       -1.943862588    10.517579944     0.857329021
 C       -1.436888294     9.220310149     0.872980482
Si       -3.905314603    12.486663634     0.339974968
 C       -2.509691318    13.670038410     0.416599759
 C       -2.314707739    14.578549026     1.381599074
 C       -1.187930618    15.512275865     1.415613980
 C       -1.089615163    16.420012872     2.479563276
 C       -0.042866829    17.324267221     2.558473761
 C        0.926366199    17.387964806     1.533727393
 C        0.827160364    16.476624370     0.463770984
 C       -0.200379615    15.543885156     0.426751514
 N        1.986478643    18.306184840     1.617080775
 C        1.740702132    19.563142304     2.345536416
 C        2.798011885    18.498907991     0.402172074
 C        0.652678853    20.435702949     1.695101298
 C        0.670296974    21.887605291     2.200047882
 N        1.925055868    22.637282193     1.963733895
 C        2.581350268    22.358762242     0.744371085
 C        1.832327672    22.450951651    -0.448234999
 C        2.430140753    22.187666594    -1.668682056
 C        3.792343755    21.858645087    -1.752044685
 C        4.535231588    21.793264494    -0.571580483
 C        3.947957718    22.046657729     0.663322023
 C        2.774045051    22.750638609     3.160415747
 C        4.373501803    21.589556373    -3.069319464
 C        5.657579927    21.267022872    -3.271194850
Si        6.421950165    20.923418522    -4.901028030
 C        7.780905724    22.139711305    -5.177518873
 C        7.843041710    23.320585793    -4.430806397
 C        8.871715231    24.238140439    -4.642210143
 C        9.853515448    24.000278592    -5.607887243
 C        9.785421527    22.818562102    -6.358178921
 C        8.761563160    21.898540218    -6.147843754
 C       10.947751089    24.931583139    -5.863448461
 C       11.127530898    26.095564828    -5.216143436
 C       12.221242028    27.027558679    -5.470807809
 C       13.205493747    26.790445155    -6.433501766
 C       14.233757420    27.709668813    -6.643609028
 C       14.298958487    28.887807614    -5.894242211
 C       13.312865094    29.128363159    -4.927487761
 C       12.288521367    28.209075587    -4.719582644
Si       15.646336532    30.124066670    -6.147923662
 C       16.742732020    29.627628878    -7.577917923
 C       14.877026905    31.787890702    -6.513331229
 C       16.668600469    30.219385587    -4.586321417
 C        7.114013724    19.188499181    -4.857632833
 C        5.185888695    21.084141490    -6.290503633
 C       -4.835245012    12.795263190    -1.251529770
 C       -5.056120883    12.677595499     1.798101540
 C       -0.600455333    -0.900735121    -1.524683532
 C       -0.628792542    -0.862163159     1.534118994
 H        1.115919593     2.638847530     0.904966139
 H        0.222433849     4.896582229     0.887900674
 H       -3.430983457     3.481931303    -0.894050830
 H       -2.575837049     1.206227629    -0.899694771
 H       -3.248317639     5.759829951    -0.449717578
 H       -0.609120767     6.751531003     0.830794243
 H       -4.081207397     7.591879615    -0.508965211
 H       -4.992960303     9.841813038    -0.534628174
 H       -1.306606936    11.317225056     1.250134174
 H       -0.439544044     9.040995033     1.270678254
 H       -1.809658135    13.580560816    -0.429808917
 H       -2.995955539    14.692512110     2.235281310
 H       -1.842148993    16.408610611     3.268642819
 H        0.021012362    17.986408002     3.416586368
 H        1.557546402    16.482622472    -0.339369038
 H       -0.241379365    14.836800183    -0.403684921
 H        3.534580497    19.308030354     0.554548909
 H        2.202191915    18.756982803    -0.488890231
 H        3.369275535    17.574797597     0.200670991
 H        2.172894658    23.169244039     3.987121436
 H        3.586742842    23.473844847     2.965063156
 H        3.217898527    21.801071618     3.497623789
 H        0.783487266    22.735380405    -0.403641523
 H        1.833891879    22.251155880    -2.579795012
 H        5.596915756    21.543236754    -0.609082062
 H        4.558263280    21.983713223     1.558842044
 H        3.648263546    21.680999617    -3.888727182
 H        6.362706751    21.181755011    -2.428307590
 H        7.099131523    23.562914584    -3.664459451
 H        8.900927140    25.148363130    -4.045556229
 H       10.540231630    22.614976704    -7.115409694
 H        8.760514901    20.993961396    -6.761925981
 H       11.643969535    24.615706432    -6.645871686
 H       10.430352438    26.411559820    -4.434237341
 H       13.177686895    25.880995134    -7.031071449
 H       14.974339425    27.468756054    -7.411144111
 H       13.312821048    30.032244898    -4.311674035
 H       11.531466191    28.413007755    -3.964416792
 H        1.475731521    19.321731892     3.398745879
 H        2.706826323    20.116395772     2.397117878
 H        0.773036051    20.416105957     0.592576945
 H       -0.345839293    19.992791983     1.879489994
 H       -0.141522418    22.460918556     1.689242782
 H        0.427891409    21.913848290     3.284719023
 H        2.267136588    -1.028454904    -0.064608104
 H        2.279364739     0.454818211     0.918726077
 H        2.269930398     0.565270609    -0.860875608
 H       17.534390597    30.378441087    -7.751760345
 H       16.166226275    29.533428524    -8.515532529
 H       17.241780579    28.660254800    -7.390690882
 H       14.244725407    31.744963499    -7.418867430
 H       14.237861463    32.132141647    -5.681283338
 H       15.648771494    32.559370828    -6.682315163
 H       17.129535965    29.243071454    -4.349994909
 H       17.483595798    30.958064750    -4.683170340
 H       16.053578878    30.512032474    -3.716917013
 H        7.902881899    19.088662837    -4.090181226
 H        6.326043375    18.450690173    -4.621321042
 H        7.556533993    18.903263134    -5.828066092
 H        4.757552838    22.102533829    -6.331860907
 H        5.656335893    20.887469683    -7.270782743
 H        4.350395607    20.371501135    -6.173025998
 H       -4.195379612    12.610413008    -2.133280001
 H       -5.720619481    12.142181610    -1.339294011
 H       -5.186061432    13.841534686    -1.310264980
 H       -4.526091875    12.507403989     2.753091544
 H       -5.498505736    13.688810449     1.833557191
 H       -5.887037400    11.951148187     1.750679035
 H       -0.304095053    -0.367159516    -2.446022133
 H       -0.176495831    -1.919108931    -1.579741370
 H       -1.699828108    -0.999737914    -1.536486562
 H       -0.284345681    -0.351356175     2.451443346
 H       -1.733082538    -0.878750460     1.562492326
 H       -0.277128414    -1.907665651     1.581464611

