139   

Si        0.000000000     0.000000000     0.000000000
 C        1.869124164     0.000000000     0.000000000
 C       -0.653514301     1.725038846     0.000000000
 C        0.182650471     2.826976290    -0.200304468
 C       -0.336570326     4.121808541    -0.195720989
 C       -1.700627914     4.341820144     0.009894173
 C       -2.538677632     3.235349205     0.205351068
 C       -2.024278377     1.942394067     0.195180198
 C       -2.290696738     5.674987355     0.023520061
 C       -1.608581446     6.818837276    -0.155586290
 C       -2.213843215     8.146345371    -0.139176859
 C       -1.397224235     9.267742057    -0.338511843
 C       -1.936594520    10.550804056    -0.329977239
 C       -3.302898306    10.742328999    -0.080368551
 C       -4.115969398     9.626768346     0.134591966
 C       -3.576082165     8.341540849     0.101302115
Si       -3.993874606    12.450308991    -0.074226064
 C       -3.705307220    13.207803263    -1.716779385
 C       -3.088129793    12.585486567    -2.729421793
 C       -2.854938835    13.186135568    -4.043965122
 C       -2.194932453    12.427043431    -5.022523092
 C       -1.950953673    12.951397522    -6.281823677
 C       -2.369024740    14.258014525    -6.590986984
 C       -3.035485978    15.017612576    -5.621815066
 C       -3.279128750    14.477131467    -4.363584540
 N       -2.083735788    14.734158317    -7.910245863
 C       -0.627035652    14.948994203    -8.097236410
 C       -2.881282267    15.896435423    -8.341441706
 C        0.015581436    15.821964185    -7.002745774
 C        1.515804201    15.550336852    -6.798117161
 N        1.893871695    14.333567730    -6.073023139
 C        1.671808731    14.226083523    -4.691212379
 C        0.940592301    15.168752332    -3.945273411
 C        0.761049577    14.996755472    -2.578390205
 C        1.368651219    13.938794182    -1.891034615
 C        2.116385989    13.015472210    -2.631801724
 C        2.255421107    13.138507838    -4.004531148
 C        1.807119557    13.081276561    -6.838976925
 C        1.153537288    13.793086412    -0.448905331
 C        1.693036158    12.813930102     0.290269085
Si        1.474256598    12.562614073     2.091062704
 C        0.709125572    10.909859419     2.378944577
 C       -0.593452467    10.758675584     2.860589689
 C       -1.130755220     9.486412763     3.063105177
 C       -0.372204126     8.342096032     2.805528474
 C        0.935733983     8.496090874     2.325099734
 C        1.468741056     9.762504445     2.108775783
 C       -0.882130901     6.989716484     2.999122058
 C       -2.109978749     6.684395782     3.450914463
 C       -2.596755429     5.321048732     3.636071240
 C       -1.812314180     4.198946735     3.353841653
 C       -2.312518165     2.911814063     3.543551967
 C       -3.615938191     2.718090331     4.013719911
 C       -4.406914217     3.839958532     4.289239279
 C       -3.904087119     5.124949580     4.098290366
Si       -4.268979226     1.010502166     4.261603968
 C       -2.895306439    -0.104866083     4.866392406
 C       -5.651067165     1.017831695     5.520108817
 C       -4.910894604     0.380544686     2.622071701
 C        3.162789053    12.599919594     2.896107760
 C        0.423046305    13.911071349     2.845384654
 C       -5.827713210    12.440239258     0.278941938
 C       -3.101379733    13.471890637     1.210844153
 C       -0.633585255    -0.880205714    -1.520812309
 C       -0.608573204    -0.865353559     1.543117790
 H        1.257476108     2.716939465    -0.363517316
 H        0.333872641     4.964005623    -0.355563058
 H       -3.603968723     3.387308070     0.373856441
 H       -2.727228436     1.118622866     0.347086408
 H       -3.370520474     5.692922726     0.201547140
 H       -0.528791469     6.808294550    -0.325176576
 H       -0.328503765     9.138288056    -0.502810569
 H       -1.251616338    11.388472989    -0.505650984
 H       -5.186792386     9.716770012     0.333065934
 H       -4.229234384     7.487294085     0.269767899
 H       -4.083487326    14.235548926    -1.817778063
 H       -2.701868580    11.557507501    -2.652071992
 H       -1.865168546    11.413660609    -4.789154347
 H       -1.455302628    12.352848263    -7.042687480
 H       -3.363560701    16.029573861    -5.838526906
 H       -3.800121700    15.080529833    -3.620015568
 H       -2.732569148    16.036793954    -9.426347137
 H       -2.631450078    16.838364501    -7.830879394
 H       -3.953283071    15.680977765    -8.188266204
 H        1.873225248    13.277803605    -7.920945142
 H        0.876814739    12.522432217    -6.634744760
 H        2.665923169    12.434728740    -6.579466859
 H        0.487727769    16.027286305    -4.429860653
 H        0.144191298    15.712080970    -2.033203186
 H        2.593576837    12.174258270    -2.126668945
 H        2.836965383    12.400945970    -4.549230252
 H        0.497457106    14.565025245    -0.027406076
 H        2.343879955    12.053589601    -0.172512122
 H       -1.234159463    11.616676286     3.080968229
 H       -2.154443972     9.393191248     3.421548021
 H        1.541266655     7.616057270     2.117697862
 H        2.491475620     9.819026762     1.726006130
 H       -0.174879982     6.195104374     2.739418252
 H       -2.825193145     7.470641501     3.705779475
 H       -0.798012985     4.320579494     2.974932797
 H       -1.649352383     2.075839118     3.300939253
 H       -5.431619735     3.749470902     4.657903676
 H       -4.535118209     5.984457470     4.315051770
 H       -0.159691831    13.940307088    -8.123190666
 H       -0.458484555    15.392184562    -9.100701772
 H       -0.131288025    16.890338663    -7.245040271
 H       -0.514219284    15.665655904    -6.038978674
 H        2.031714705    15.525906902    -7.786546489
 H        1.965446941    16.411764865    -6.243711292
 H        2.267710214    -1.028729052     0.054311672
 H        2.273550400     0.557098864     0.863855864
 H        2.275806380     0.461137415    -0.917283556
 H       -3.271309337    -1.118113120     5.091006888
 H       -2.437807705     0.292473771     5.790507666
 H       -2.091897524    -0.207478362     4.114992222
 H       -5.319326608     1.462762723     6.475692288
 H       -6.523072406     1.595832794     5.168000614
 H       -6.000763636    -0.007095478     5.736225228
 H       -4.107100858     0.337322986     1.865388821
 H       -5.333726431    -0.634206829     2.720547966
 H       -5.705552950     1.036638380     2.224195418
 H        3.834400905    11.829061253     2.480935103
 H        3.652054501    13.579354515     2.749270718
 H        3.087963515    12.423460936     3.984022335
 H       -0.585006079    13.949677210     2.394674931
 H        0.296892851    13.756141487     3.931881867
 H        0.888778862    14.902932519     2.705272454
 H       -6.381729335    11.866625081    -0.486319509
 H       -6.047643384    11.988599300     1.262165545
 H       -6.242759599    13.463417390     0.284309706
 H       -2.040312292    13.607641584     0.928511330
 H       -3.550638167    14.473910552     1.315976937
 H       -3.130883823    12.984223026     2.200970991
 H       -0.289581901    -0.380747097    -2.444666129
 H       -0.282041884    -1.926051196    -1.557572192
 H       -1.737684041    -0.897071410    -1.549021027
 H       -0.257099102    -0.347514282     2.454009629
 H       -1.711989370    -0.898940097     1.582460637
 H       -0.242892198    -1.905933712     1.589299459

