139   

Si        0.000000000     0.000000000     0.000000000
 C        1.864774179     0.000000000     0.000000000
 C       -0.594123090     1.746633992     0.000000000
 C       -0.194036785     2.599882512    -1.035434864
 C       -0.624496234     3.924027190    -1.065362337
 C       -1.442644277     4.434586713    -0.052293848
 C       -1.832638279     3.582979200     0.987765075
 C       -1.414417228     2.253449692     1.013602286
 C       -1.909571597     5.817840792    -0.056452744
 C       -1.599177485     6.704452286    -1.016961096
 C       -2.039380989     8.092998262    -1.065927258
 C       -2.856212545     8.674465200    -0.092744240
 C       -3.244990213    10.011296120    -0.194922598
 C       -2.849476171    10.781187912    -1.291644700
 C       -2.038733417    10.196300883    -2.274719106
 C       -1.634963882     8.870680793    -2.159394855
Si       -3.325759849    12.557114366    -1.494729248
 C       -1.986588959    13.242373007    -2.538338897
 C       -2.135466598    13.804084534    -3.744034615
 C       -1.021531938    14.335023942    -4.531175878
 C       -1.288444952    14.903567878    -5.784191094
 C       -0.268299113    15.419340189    -6.566256618
 C        1.072245623    15.329741687    -6.135469230
 C        1.342034624    14.754360079    -4.883182602
 C        0.303223600    14.284687492    -4.089575043
 N        2.084661756    15.868084603    -6.961935428
 C        1.970384625    15.535275982    -8.398822358
 C        3.460583989    15.786168111    -6.445477839
 C        1.650318540    14.062632468    -8.715389365
 C        2.896347029    13.157453866    -8.686753406
 N        2.641944386    11.797817850    -8.168692438
 C        2.528821510    11.695308749    -6.758113000
 C        3.613888729    12.152754535    -5.983423660
 C        3.562632683    12.079009322    -4.601635340
 C        2.475263202    11.478188154    -3.948121935
 C        1.417886696    10.994448339    -4.721324903
 C        1.435480922    11.102409021    -6.108777028
 C        1.630910235    11.071501664    -8.954488008
 C        2.486394836    11.434896448    -2.484311141
 C        1.525803696    10.897862670    -1.720707498
Si        1.589197270    10.870025390     0.110906525
 C        1.553371310     9.142548917     0.755060589
 C        2.680922018     8.326121235     0.607726219
 C        2.676367663     7.017440834     1.086800911
 C        1.548946600     6.493829204     1.727092108
 C        0.420284123     7.310290306     1.868158663
 C        0.418634578     8.616352985     1.381777514
 C        1.503229977     5.128769746     2.243132871
 C        2.521517566     4.255444279     2.165761007
 C        2.495425006     2.888709197     2.674779090
 C        1.380938417     2.336119285     3.310043543
 C        1.406276843     1.022191929     3.779778410
 C        2.558480122     0.241275684     3.649947247
 C        3.682346838     0.796759646     3.022420473
 C        3.647849129     2.101589276     2.539012340
Si        2.635815877    -1.501102442     4.257124442
 C        0.998062705    -2.018524013     4.995715517
 C        3.044330158    -2.625937114     2.821135914
 C        3.969287790    -1.619124859     5.561048930
 C        3.151357409    11.694089557     0.732391308
 C        0.121182093    11.821080929     0.764609683
 C       -4.998564145    12.667789580    -2.309942900
 C       -3.345513722    13.441504672     0.148230786
 C       -0.625491782    -0.835246823    -1.553987246
 C       -0.663547633    -0.923668704     1.482225705
 H        0.457559890     2.263801516    -1.847098282
 H       -0.301886057     4.566177145    -1.883502524
 H       -2.470743713     3.958716397     1.784333565
 H       -1.752501546     1.633152012     1.847343577
 H       -2.547512406     6.097324425     0.784472627
 H       -0.952498830     6.408445354    -1.850979852
 H       -3.190395787     8.086395053     0.759138371
 H       -3.870489943    10.419105372     0.602237626
 H       -1.701858322    10.751959355    -3.158209411
 H       -0.997353127     8.433763895    -2.926803454
 H       -0.989109714    13.154510292    -2.072198122
 H       -3.109462372    13.912090743    -4.236852752
 H       -2.315365551    14.956699232    -6.145971127
 H       -0.502950789    15.894722235    -7.514351699
 H        2.361945205    14.651395610    -4.523111984
 H        0.541923384    13.843776597    -3.118407826
 H        4.150720702    16.281615787    -7.147886233
 H        3.813982079    14.756763418    -6.268096099
 H        3.516576920    16.345760865    -5.492981721
 H        1.914529322    11.104430604   -10.020570357
 H        0.608149371    11.468113697    -8.855015877
 H        1.631754156    10.008881019    -8.651348481
 H        4.495269954    12.555929223    -6.475785115
 H        4.396930715    12.466452475    -4.016671046
 H        0.555995783    10.532410209    -4.236709084
 H        0.582199084    10.742954274    -6.675977437
 H        3.387728056    11.897883267    -2.057892382
 H        0.628666424    10.432324026    -2.158178846
 H        3.591256962     8.677246252     0.113370753
 H        3.563540992     6.401246487     0.954158423
 H       -0.471771116     6.919627715     2.353716803
 H       -0.499535286     9.198599356     1.505431593
 H        0.553421216     4.842243365     2.703795104
 H        3.464503524     4.545239113     1.692061417
 H        0.472476179     2.925349897     3.426064467
 H        0.501502855     0.643931951     4.262908770
 H        4.611624646     0.235325215     2.893265789
 H        4.528769617     2.514795041     2.051241159
 H        1.161366236    16.185018606    -8.812260091
 H        2.900732328    15.849196198    -8.919076222
 H        0.895400954    13.681239284    -7.995565631
 H        1.160418430    13.997836807    -9.703602196
 H        3.313601911    13.045095870    -9.713436959
 H        3.703880488    13.624293026    -8.082121365
 H        2.273527926    -1.022669724     0.064090487
 H        2.257006259     0.570130355     0.866696874
 H        2.272198315     0.471118775    -0.911000914
 H        1.038365189    -3.060905847     5.358970547
 H        0.181685778    -1.959222747     4.253596196
 H        0.721318229    -1.381435950     5.854265036
 H        2.270600579    -2.565214406     2.033959602
 H        4.009301543    -2.357237912     2.356732832
 H        3.110566005    -3.679792673     3.143145830
 H        3.749005352    -0.959013674     6.419616953
 H        4.064003951    -2.648580032     5.948459073
 H        4.954717750    -1.320648145     5.161760883
 H        4.058453195    11.192352260     0.353588686
 H        3.198447136    12.753802858     0.426616316
 H        3.198393712    11.664719887     1.836009647
 H       -0.824713963    11.304620134     0.514497949
 H        0.166018988    11.919100345     1.863240936
 H        0.077681063    12.839048360     0.338484505
 H       -5.008089600    12.146743811    -3.284717442
 H       -5.782865369    12.205010438    -1.684530292
 H       -5.292090614    13.717650967    -2.488252261
 H       -2.385065878    13.328484709     0.683927836
 H       -3.522921546    14.524132223     0.013850436
 H       -4.142498143    13.054941371     0.806853320
 H       -0.259410045    -0.325513976    -2.462326433
 H       -0.294566407    -1.886956164    -1.604682651
 H       -1.729213661    -0.829525187    -1.594744160
 H       -0.404044037    -0.405304407     2.422739809
 H       -1.762921937    -1.015266394     1.439953319
 H       -0.246377901    -1.944604310     1.536555366

