139   

Si        0.000000000     0.000000000     0.000000000
 C        1.869217741     0.000000000     0.000000000
 C       -0.609278925     1.742269457     0.000000000
 C       -0.107608013     2.652980745    -0.937777539
 C       -0.554874339     3.972990896    -0.954181922
 C       -1.518727739     4.412269576    -0.041420893
 C       -2.022152401     3.498583452     0.893052798
 C       -1.573744270     2.179600792     0.914735277
 C       -2.016437420     5.783847169    -0.021320391
 C       -1.614627713     6.755989823    -0.857205160
 C       -2.113389070     8.127227308    -0.835785741
 C       -1.606485147     9.043268403    -1.767959823
 C       -2.052302378    10.361570760    -1.785323644
 C       -3.027466208    10.793882792    -0.875134991
 C       -3.535091677     9.881742204     0.053719640
 C       -3.079078521     8.563388062     0.074743950
Si       -3.599774471    12.547120570    -0.920980052
 C       -4.193307620    13.004167867    -2.593301027
 C       -4.212966160    12.180907761    -3.649422717
 C       -4.688629897    12.552977622    -4.982730520
 C       -4.652877123    11.588209934    -6.000702871
 C       -5.090256458    11.884947803    -7.280870905
 C       -5.531909151    13.186306988    -7.594880416
 C       -5.573398071    14.152580718    -6.578495638
 C       -5.183399724    13.823836533    -5.284587751
 N       -5.969658430    13.438087827    -8.920298743
 C       -4.998615410    13.087891550    -9.978608281
 C       -6.604570107    14.747370568    -9.151486415
 C       -3.699696514    13.916614693    -9.967728549
 C       -2.549680757    13.179235698    -9.251511450
 N       -1.469235067    14.059912838    -8.754072691
 C       -1.906731847    14.860726852    -7.648900997
 C       -1.946982547    14.225831681    -6.396275833
 C       -2.359128394    14.932057106    -5.276875818
 C       -2.712075945    16.287307951    -5.370958089
 C       -2.651497299    16.913597628    -6.617692891
 C       -2.249377550    16.213327158    -7.751172102
 C       -0.801179286    14.812328819    -9.830916772
 C       -3.141170338    16.988132926    -4.157212022
 C       -3.500612986    18.278132480    -4.126511695
Si       -4.041393074    19.184686409    -2.629555834
 C       -4.011001268    18.042187971    -1.182534291
 C       -5.195107159    17.493235544    -0.676585772
 C       -5.163208745    16.631131292     0.416720921
 C       -3.950766790    16.309887369     1.040058218
 C       -2.769583563    16.859606630     0.532537746
 C       -2.796628152    17.710273750    -0.571369026
 C       -3.969868827    15.402130973     2.181783074
 C       -2.881851465    14.999927918     2.860038762
 C       -2.910956426    14.091304345     4.001284527
 C       -4.097699869    13.547625817     4.500313149
 C       -4.080414026    12.682559473     5.593924485
 C       -2.871995368    12.329393620     6.203291371
 C       -1.680741136    12.869241207     5.701343432
 C       -1.701643177    13.741121675     4.615741845
Si       -2.836942247    11.184854630     7.651862150
 C       -4.366965367    10.110698239     7.664377920
 C       -1.328886509    10.085628311     7.546488067
 C       -2.771102869    12.210463486     9.212008318
 C       -2.879603043    20.615517910    -2.327183515
 C       -5.769152444    19.832565173    -2.923901839
 C       -4.988807757    12.828597868     0.292440004
 C       -2.136873240    13.633588786    -0.511776360
 C       -0.637180386    -0.846946064    -1.539444200
 C       -0.611126089    -0.915216961     1.511100479
 H        0.644396128     2.367639768    -1.678849092
 H       -0.144862709     4.663348356    -1.689241654
 H       -2.772933826     3.819412380     1.612958533
 H       -2.001302986     1.513457034     1.668912640
 H       -2.768466562     5.986077765     0.747090044
 H       -0.862202633     6.554676632    -1.625269576
 H       -0.853422583     8.722727847    -2.485122815
 H       -1.611960457    11.035153846    -2.527866222
 H       -4.294181010    10.163644163     0.789052920
 H       -3.486383745     7.873711976     0.811642487
 H       -4.551835905    14.043260407    -2.668312062
 H       -3.871790296    11.136808241    -3.592745240
 H       -4.289092930    10.584011251    -5.780339981
 H       -5.099738051    11.111885274    -8.044808839
 H       -5.899515579    15.167358502    -6.785107108
 H       -5.241691907    14.588090303    -4.507018760
 H       -7.020367826    14.771343471   -10.173095923
 H       -5.926863282    15.607503463    -9.031641927
 H       -7.454213882    14.864360488    -8.454695649
 H       -0.328467355    14.088619097   -10.517320433
 H        0.005745304    15.426775781    -9.394351613
 H       -1.461458760    15.467195002   -10.417725799
 H       -1.662574872    13.177004322    -6.317174526
 H       -2.403977233    14.422753011    -4.310831837
 H       -2.921481078    17.964796120    -6.715017118
 H       -2.211858312    16.721451448    -8.709727210
 H       -3.139590419    16.348049918    -3.262843824
 H       -3.492071984    18.895632153    -5.038148610
 H       -6.172172670    17.712911662    -1.116448957
 H       -6.093966053    16.210748772     0.793103078
 H       -1.814491838    16.628116831     1.001293912
 H       -1.840217611    18.103167106    -0.929400187
 H       -4.966256908    15.056354647     2.473829657
 H       -1.884987698    15.347436496     2.574630744
 H       -5.051118476    13.799263814     4.039442272
 H       -5.041090685    12.293548416     5.942328028
 H       -0.706523226    12.627226534     6.135479887
 H       -0.765277535    14.150013029     4.240204646
 H       -4.770818490    12.001601351    -9.897151358
 H       -5.517284045    13.209101333   -10.957073401
 H       -3.401767493    14.161766742   -11.001845597
 H       -3.880306293    14.890485880    -9.470830794
 H       -2.944889677    12.609784405    -8.376703809
 H       -2.086499053    12.431912741    -9.931251511
 H        2.269709629    -1.028741376     0.027238039
 H        2.269140120     0.536638948     0.879566786
 H        2.276729297     0.492229000    -0.900459642
 H       -4.323420052     9.363905632     8.477204697
 H       -4.475833761     9.558809559     6.713193735
 H       -5.284689961    10.706041419     7.813403074
 H       -1.304103053     9.533212203     6.589054877
 H       -0.392143143    10.665421768     7.619366432
 H       -1.319704696     9.339020294     8.360341869
 H       -3.655473480    12.867190374     9.299148312
 H       -2.739577404    11.571837591    10.112279859
 H       -1.877122421    12.859330197     9.230740949
 H       -1.833277862    20.276111766    -2.223965988
 H       -2.909651385    21.341973585    -3.158445948
 H       -3.146556525    21.156563005    -1.401473412
 H       -6.464798043    19.022352631    -3.207974644
 H       -6.173431790    20.323613894    -2.020943188
 H       -5.783967373    20.577063230    -3.739825183
 H       -5.850346427    12.170179016     0.083692217
 H       -4.658223930    12.640208952     1.330146135
 H       -5.348718223    13.873018499     0.242340938
 H       -1.265516915    13.398884821    -1.147578030
 H       -2.380916952    14.702363332    -0.656466184
 H       -1.828730265    13.500262823     0.541140739
 H       -0.291906422    -0.334593317    -2.455051965
 H       -0.294707623    -1.895185954    -1.593436973
 H       -1.741982778    -0.854808527    -1.563772104
 H       -0.286374421    -0.417990091     2.442690325
 H       -1.713506042    -0.978553480     1.530261602
 H       -0.221642433    -1.948698836     1.535238150

