139   

Si        0.000000000     0.000000000     0.000000000
 C        1.869190632     0.000000000     0.000000000
 C       -0.621781614     1.738121087     0.000000000
 C       -0.027226715     2.691626958    -0.834963505
 C       -0.484866840     4.008224068    -0.846875815
 C       -1.551642526     4.401426022    -0.033143601
 C       -2.148431966     3.444846225     0.797807747
 C       -1.690521838     2.129111233     0.814787344
 C       -2.063352338     5.768093701    -0.013290580
 C       -1.577299457     6.776064125    -0.757378423
 C       -2.086198554     8.143635586    -0.740279429
 C       -3.152371103     8.541808248     0.071359606
 C       -3.606312437     9.860252285     0.055616306
 C       -2.995547221    10.810956391    -0.768445610
 C       -1.926678794    10.416228137    -1.582634924
 C       -1.481061776     9.096958864    -1.569825764
Si       -3.586727655    12.557958881    -0.798241629
 C       -2.192768222    13.624587842    -1.326941503
 C       -2.186348377    14.411374628    -2.410595673
 C       -1.055089971    15.253583629    -2.807290614
 C       -1.170321012    16.035715540    -3.967090844
 C       -0.129982973    16.848672077    -4.385055431
 C        1.052458063    16.935523774    -3.621612335
 C        1.172303511    16.154407758    -2.462409929
 C        0.135724163    15.309881220    -2.079339742
 N        2.078402237    17.784544324    -4.103788417
 C        1.716069787    19.210102723    -4.229931709
 C        3.420027598    17.562336978    -3.544091889
 C        1.894888093    20.072324918    -2.968121694
 C        0.924676998    19.734460527    -1.820916378
 N       -0.457519529    20.211846094    -1.993518927
 C       -0.642056765    21.550142616    -2.368165476
 C        0.197177345    22.544530799    -1.817005174
 C        0.034498727    23.872942181    -2.171470890
 C       -0.987867862    24.271368439    -3.045920846
 C       -1.834904116    23.289685166    -3.566453939
 C       -1.678131686    21.950342410    -3.233623908
 C       -1.382043609    19.217589453    -2.552418613
 C       -1.112948641    25.689007672    -3.385910287
 C       -2.045277273    26.190630180    -4.206887113
Si       -2.214228260    27.961909291    -4.641684085
 C       -0.913486986    28.950439959    -3.783680621
 C       -0.872365829    28.962058381    -2.383639728
 C        0.098962083    29.699767727    -1.709677813
 C        1.052547517    30.439207505    -2.416393233
 C        1.010184149    30.424643015    -3.816078844
 C        0.039092097    29.689473889    -4.493069418
 C        2.087331838    31.225714407    -1.752697007
 C        2.236586269    31.323274398    -0.420733171
 C        3.270617469    32.109181903     0.244579394
 C        4.223731945    32.850497061    -0.458119647
 C        5.195043818    33.588058285     0.219524909
 C        5.233233020    33.599900914     1.616688640
 C        4.278351171    32.856742529     2.324379389
 C        3.310889917    32.121299510     1.645697526
Si        6.504941196    34.565069334     2.543639099
 C        7.580435983    35.545855121     1.371104667
 C        5.636646088    35.740409150     3.709116601
 C        7.569832026    33.372537944     3.511476577
 C       -2.064127730    28.128205569    -6.497024429
 C       -3.894370708    28.567961416    -4.092582556
 C       -5.032483742    12.674694576    -1.973250867
 C       -4.108958976    13.098968835     0.911626292
 C       -0.634720756    -0.848487692    -1.539388400
 C       -0.607442758    -0.913219380     1.513940457
 H        0.808390994     2.444101745    -1.495819636
 H       -0.002150150     4.731574848    -1.501801608
 H       -2.980551993     3.729033014     1.439452669
 H       -2.194695849     1.427946427     1.485399205
 H       -2.901287687     5.933099858     0.670350968
 H       -0.739574794     6.609234954    -1.441262669
 H       -3.639915387     7.820502714     0.724636706
 H       -4.445174860    10.112111544     0.710095468
 H       -1.412299182    11.119067196    -2.246670424
 H       -0.650800002     8.806979733    -2.211460138
 H       -1.319666769    13.571366063    -0.656092522
 H       -3.041412235    14.485585736    -3.095430615
 H       -2.084585395    15.990416681    -4.559680299
 H       -0.212627752    17.412683129    -5.312228902
 H        2.073551573    16.195499555    -1.857965837
 H        0.256675052    14.697602712    -1.184179633
 H        4.149527438    18.159096032    -4.119629990
 H        3.694523455    16.500039856    -3.675215234
 H        3.519438025    17.822248282    -2.478647255
 H       -1.171162165    18.221044743    -2.121822387
 H       -1.330548175    19.129192878    -3.649788244
 H       -2.415879484    19.477787990    -2.259764490
 H        0.972844964    22.268520210    -1.108716806
 H        0.705262161    24.623456638    -1.750349236
 H       -2.637877535    23.572836972    -4.248286259
 H       -2.354811591    21.219934048    -3.664453450
 H       -0.352903155    26.317716046    -2.898535041
 H       -2.793209042    25.540974489    -4.686230002
 H       -1.591781137    28.402794945    -1.776694245
 H        0.108901534    29.695060892    -0.621164318
 H        1.743048881    30.993105449    -4.385515215
 H        0.056436902    29.715250694    -5.585946349
 H        2.764324148    31.755025561    -2.429648474
 H        1.558608310    30.794092824     0.255605178
 H        4.215948001    32.858701330    -1.546660789
 H        5.913389840    34.148420265    -0.385140860
 H        4.259411548    32.828405828     3.417566227
 H        2.577367972    31.550384372     2.212169361
 H        2.353630453    19.625068704    -5.047952842
 H        0.666141436    19.291001756    -4.589704777
 H        2.933384009    19.990595159    -2.596464858
 H        1.775502468    21.138886859    -3.255402739
 H        0.906365043    18.633759506    -1.649237893
 H        1.308874674    20.180171339    -0.871375982
 H        2.268831217    -1.028727760     0.042251859
 H        2.268812093     0.548256442     0.872579103
 H        2.278568293     0.477758512    -0.907241145
 H        8.319148138    36.154231744     1.923273212
 H        6.979598927    36.237288937     0.753647600
 H        8.142680742    34.885585653     0.687153098
 H        4.982984660    36.439972060     3.156837791
 H        5.002792676    35.199879126     4.433956663
 H        6.360348332    36.344573428     4.284102521
 H        8.092928396    32.668043280     2.839557199
 H        8.337909856    33.904643823     4.099824590
 H        6.967420591    32.770654759     4.214711651
 H       -1.090390712    27.749183427    -6.856985647
 H       -2.851881104    27.552908875    -7.015379277
 H       -2.157355093    29.180649186    -6.817822684
 H       -4.031091497    28.446428892    -3.002840681
 H       -4.027018045    29.639773302    -4.325818106
 H       -4.707472214    28.013271970    -4.592721955
 H       -4.747116289    12.363654903    -2.994894241
 H       -5.862834090    12.019752858    -1.652551722
 H       -5.424728254    13.705417648    -2.031183519
 H       -3.296044456    12.954344766     1.646241788
 H       -4.380179242    14.170451886     0.924577936
 H       -4.985712215    12.530727572     1.268419696
 H       -0.293613877    -0.332035869    -2.454431081
 H       -0.285681169    -1.894478612    -1.595731539
 H       -1.739416887    -0.863083688    -1.562760214
 H       -0.305706521    -0.396388811     2.442761838
 H       -1.707830589    -1.004082310     1.522435775
 H       -0.192580739    -1.936278418     1.554957282

