139   

Si        0.000000000     0.000000000     0.000000000
 C        1.869357930     0.000000000     0.000000000
 C       -0.639886732     1.731774268     0.000000000
 C        0.078712697     2.759235502    -0.620810369
 C       -0.406933928     4.066478175    -0.619327441
 C       -1.624506688     4.375454513    -0.006439113
 C       -2.345548864     3.344261010     0.609724716
 C       -1.861359410     2.038518467     0.612685699
 C       -2.173159050     5.727354338     0.020875696
 C       -1.585282892     6.804589242    -0.526723424
 C       -2.137744505     8.155148137    -0.497017603
 C       -3.356637721     8.456007509     0.118269899
 C       -3.849248103     9.760160038     0.124254961
 C       -3.126968980    10.794186532    -0.480895868
 C       -1.905974168    10.497328197    -1.098028651
 C       -1.420348995     9.191833087    -1.107801828
Si       -3.781007198    12.518747985    -0.471540595
 C       -2.392724067    13.672833393    -0.785771521
 C       -2.312473415    14.527069311    -1.814155674
 C       -1.187787656    15.438250903    -2.038225501
 C       -1.218636873    16.288579092    -3.154924792
 C       -0.181298647    17.168223506    -3.411914404
 C        0.916959360    17.248963804    -2.528688271
 C        0.953278634    16.396459949    -1.413535852
 C       -0.079153110    15.491506879    -1.191050707
 N        1.950065654    18.161582783    -2.834292713
 C        1.520271728    19.552250638    -3.105402761
 C        3.172956765    18.073004430    -2.020614736
 C        0.340525842    20.066320973    -2.264238852
 C        0.630574344    20.056867617    -0.752662335
 N       -0.590697314    20.105190985     0.071759936
 C       -1.413731757    21.236620923    -0.069511926
 C       -0.839364995    22.496452218    -0.345705810
 C       -1.640997719    23.617566420    -0.486797963
 C       -3.030323959    23.544548327    -0.312635000
 C       -3.593534480    22.302500941    -0.006456665
 C       -2.807053038    21.165814154     0.123838376
 C       -1.267006814    18.799492556     0.166096618
 C       -3.831318728    24.759358133    -0.473258894
 C       -5.162515892    24.804524460    -0.330292967
Si       -6.205207419    26.298113326    -0.521153300
 C       -7.079161919    26.601160773     1.075710642
 C       -6.573004871    26.077050449     2.269780876
 C       -7.231629516    26.304700701     3.477641603
 C       -8.403685618    27.064988269     3.519743389
 C       -8.905868134    27.591934166     2.322360652
 C       -8.252489136    27.364270861     1.113803114
 C       -9.126370070    27.329150613     4.759821729
 C       -8.753169747    26.883866320     5.971561569
 C       -9.475103215    27.147469512     7.212058139
 C      -10.648774896    27.905105072     7.255410011
 C      -11.306532493    28.132245324     8.463768045
 C      -10.799291760    27.612573984     9.659567418
 C       -9.623004752    26.853527075     9.618983188
 C       -8.972368831    26.621858034     8.409559781
Si      -11.669564166    27.912829050    11.260012889
 C      -12.567351027    29.551827665    11.203100755
 C      -12.895976754    26.529195112    11.530203048
 C      -10.434793462    27.947803521    12.663431009
 C       -5.186493104    27.806543383    -0.937029350
 C       -7.443845837    25.968884528    -1.880973707
 C       -5.104189401    12.659238226    -1.780893632
 C       -4.496789374    12.925483132     1.205761619
 C       -0.631154826    -0.856471090    -1.536179953
 C       -0.602569414    -0.905095575     1.521037375
 H        1.035874951     2.579194343    -1.118053090
 H        0.174033788     4.848781318    -1.104698674
 H       -3.296231414     3.562803356     1.092826060
 H       -2.467658261     1.277016576     1.110988518
 H       -3.134389552     5.819205116     0.535586791
 H       -0.624682319     6.713925301    -1.042204202
 H       -3.934134330     7.668761041     0.599481197
 H       -4.808854937     9.933552474     0.618959715
 H       -1.301415410    11.267683639    -1.588223385
 H       -0.470595808     8.978575325    -1.595167362
 H       -1.592059039    13.613874440    -0.030546957
 H       -3.094817197    14.609361737    -2.580298799
 H       -2.067694750    16.250142139    -3.838585361
 H       -0.203624296    17.794876721    -4.300546812
 H        1.784114491    16.428392075    -0.715705351
 H       -0.020474245    14.826085588    -0.327972453
 H        3.962191556    18.684866253    -2.492552378
 H        3.539355083    17.030143519    -2.023750409
 H        3.052626581    18.403166022    -0.977090616
 H       -0.522223946    17.985171999     0.215424072
 H       -1.935432391    18.585088957    -0.684163791
 H       -1.849603487    18.761486831     1.104006953
 H        0.236475100    22.595438089    -0.454534274
 H       -1.177283541    24.575797015    -0.722953802
 H       -4.672157884    22.216435115     0.137081535
 H       -3.286999090    20.222157445     0.364241193
 H       -3.230600651    25.643733700    -0.723329651
 H       -5.737720511    23.898173742    -0.079892497
 H       -5.657803298    25.475608966     2.297994455
 H       -6.820575801    25.882832055     4.393261933
 H       -9.817550904    28.186093844     2.333745886
 H       -8.691689647    27.798403833     0.211749177
 H      -10.028598680    27.936555916     4.642894987
 H       -7.850641922    26.276280642     6.088005973
 H      -11.061613842    28.325169381     6.339931897
 H      -12.221358084    28.730535491     8.432966669
 H       -9.179581500    26.422628037    10.520894700
 H       -8.060661033    26.027122724     8.398382321
 H        2.391474961    20.233182454    -2.989287744
 H        1.240957563    19.591165071    -4.186738067
 H        0.074028614    21.091142607    -2.589473278
 H       -0.564838328    19.459596470    -2.471062990
 H        1.193866337    19.139036990    -0.467312886
 H        1.285223141    20.911419774    -0.471768406
 H        2.267950374    -1.027660571     0.071646719
 H        2.269455695     0.571734430     0.856998620
 H        2.279481097     0.449370901    -0.921282584
 H      -13.033159051    29.785827645    12.176884968
 H      -13.369799106    29.553589395    10.444959399
 H      -11.875322100    30.378202834    10.959059884
 H      -13.636787371    26.483111845    10.711772145
 H      -12.391646515    25.547047448    11.572257928
 H      -13.450474330    26.661234271    12.475792018
 H       -9.648094790    28.703177369    12.484925722
 H      -10.925418272    28.199577657    13.620457401
 H       -9.936322860    26.971604040    12.795261666
 H       -4.441242520    28.018193198    -0.148478729
 H       -4.642334389    27.675819244    -1.889069626
 H       -5.821990777    28.704736842    -1.036252496
 H       -8.108672835    25.124611120    -1.623448580
 H       -8.081598332    26.848930532    -2.073170188
 H       -6.935657644    25.712612078    -2.828264355
 H       -4.702523638    12.430303782    -2.785093197
 H       -5.932419967    11.952800177    -1.591303666
 H       -5.534412906    13.675886744    -1.813657628
 H       -3.751587993    12.778020139     2.008363369
 H       -4.830409797    13.977981017     1.252188096
 H       -5.368365210    12.289910841     1.440915285
 H       -0.288268233    -0.343439528    -2.452713256
 H       -0.280527719    -1.902205927    -1.587128480
 H       -1.735634070    -0.872254797    -1.562694999
 H       -0.313704057    -0.371270939     2.444564688
 H       -1.701349445    -1.011719892     1.526627572
 H       -0.172630051    -1.921045014     1.577252550

