139   

Si        0.000000000     0.000000000     0.000000000
 C        1.869361779     0.000000000     0.000000000
 C       -0.645445106     1.729923495     0.000000000
 C        0.172466423     2.809039944     0.349168674
 C       -0.328840880     4.110605184     0.344681455
 C       -1.658234500     4.362898450    -0.003592924
 C       -2.477700728     3.280047289    -0.349505314
 C       -1.979896357     1.979838523    -0.346861022
 C       -2.225829701     5.706690477    -0.022329157
 C       -1.550394134     6.826965400     0.285885957
 C       -2.123272530     8.168643676     0.265437972
 C       -1.310084259     9.257104163     0.609145200
 C       -1.816878888    10.554503338     0.602672893
 C       -3.153360366    10.790440290     0.259188391
 C       -3.968476888     9.705152904    -0.078086763
 C       -3.457919929     8.407917186    -0.072359660
Si       -3.848941635    12.499770435     0.242992313
 C       -5.672756944    12.349283160     0.251883446
 C       -6.491272384    12.820398113    -0.697628594
 C       -7.949181102    12.683445075    -0.661034662
 C       -8.702199636    13.219375898    -1.716034098
 C      -10.084343733    13.116131459    -1.728413000
 C      -10.747691360    12.423785184    -0.697674065
 C      -10.000460477    11.882064358     0.356888075
 C       -8.618167015    12.031123183     0.377796446
 N      -12.167445722    12.358200918    -0.775657964
 C      -12.700071383    11.601639308    -1.925285306
 C      -12.857820044    12.077067355     0.492808872
 C      -12.834792912    10.072748518    -1.757046509
 C      -11.679830796     9.265521203    -2.382046544
 N      -10.519192474     9.214451935    -1.473367529
 C       -9.237587941     9.351031564    -2.031430408
 C       -9.025956072    10.279346098    -3.073949218
 C       -7.770327591    10.428858229    -3.637175005
 C       -6.670971065     9.696454901    -3.164196361
 C       -6.875620909     8.802187568    -2.111673294
 C       -8.130793516     8.633651397    -1.539739767
 C      -10.678313796     8.224334990    -0.397527627
 C       -5.366876395     9.895014555    -3.797591864
 C       -4.246183900     9.256615956    -3.436539083
Si       -2.602585958     9.486021956    -4.211502261
 C       -2.725301503    10.732373828    -5.567571661
 C       -2.384984017    10.428842186    -6.889607767
 C       -2.490922089    11.396971564    -7.886456972
 C       -2.941493147    12.688688917    -7.586726427
 C       -3.282109287    12.989717468    -6.264275372
 C       -3.175373793    12.024388498    -5.265582705
 C       -3.035395101    13.667787134    -8.664632286
 C       -3.449519685    14.936961454    -8.510647501
 C       -3.543739229    15.916718760    -9.587929446
 C       -3.203854683    15.618236316   -10.910597789
 C       -3.309106508    16.585490576   -11.909225405
 C       -3.765896471    17.873602783   -11.608190229
 C       -4.108064264    18.174691941   -10.284323685
 C       -3.995026603    17.208428743    -9.287405518
Si       -3.902206048    19.148393795   -12.936727505
 C       -4.445925419    18.341795747   -14.533358964
 C       -5.154916150    20.451310111   -12.458712691
 C       -2.224972038    19.939935222   -13.165172584
 C       -1.384039806    10.104986694    -2.942639572
 C       -2.036001133     7.825765829    -4.853263050
 C       -3.315044707    13.430409390     1.771140051
 C       -3.244536368    13.373083784    -1.292866771
 C       -0.606104593    -0.888567294    -1.529045192
 C       -0.629357672    -0.864551854     1.532184985
 H        1.220750240     2.675179313     0.630397693
 H        0.329997082     4.933037984     0.618310119
 H       -3.516547569     3.454311282    -0.624169460
 H       -2.666586470     1.175905261    -0.626053172
 H       -3.279115868     5.753417715    -0.315739015
 H       -0.497723089     6.781506443     0.578417214
 H       -0.270672457     9.090067816     0.883176263
 H       -1.137250918    11.365211451     0.877308086
 H       -5.021300199     9.836393386    -0.361804027
 H       -4.112084185     7.577120704    -0.330992778
 H       -6.069689033    11.824257361     1.135577453
 H       -6.128190461    13.341962646    -1.593205550
 H       -8.197194843    13.731915091    -2.534510075
 H      -10.661880232    13.566330421    -2.531911257
 H      -10.489469198    11.325587355     1.149784515
 H       -8.053431692    11.605787267     1.207861615
 H      -13.943561833    12.202625351     0.344996825
 H      -12.538626415    12.823053767     1.243139947
 H      -12.674600452    11.071903679     0.904227989
 H      -11.708883165     8.252600391    -0.007036294
 H      -10.010220899     8.491191715     0.442443918
 H      -10.458387852     7.192106974    -0.717644842
 H       -9.847666344    10.898496394    -3.424385795
 H       -7.634145179    11.140796661    -4.452260049
 H       -6.039643247     8.217093459    -1.725716636
 H       -8.241355332     7.930606438    -0.721617686
 H       -5.393347948    10.629405590    -4.615173817
 H       -4.244263330     8.521960779    -2.615912459
 H       -2.030435188     9.436971910    -7.182658454
 H       -2.220731117    11.142265443    -8.909381268
 H       -3.634089124    13.986394104    -6.005353733
 H       -3.454786742    12.318347318    -4.247930141
 H       -2.736565385    13.294865609    -9.648795042
 H       -3.747665292    15.309725589    -7.526435649
 H       -2.850840499    14.622102740   -11.171893425
 H       -3.026052430    16.292558171   -12.924145313
 H       -4.471413611    19.163043358    -9.989843669
 H       -4.263748537    17.462834315    -8.263824534
 H      -13.709010220    12.032979493    -2.132392300
 H      -12.077123030    11.831093904    -2.818383622
 H      -12.931268875     9.816926569    -0.685428814
 H      -13.782919627     9.745315590    -2.225018846
 H      -12.034461181     8.233967935    -2.614470570
 H      -11.395580352     9.711032892    -3.360777560
 H        2.267647842    -1.028562011    -0.062420121
 H        2.278246929     0.455786387     0.918946456
 H        2.270721603     0.562991795    -0.861899587
 H       -4.597268411    19.092467011   -15.329200060
 H       -5.400089905    17.799877608   -14.401999189
 H       -3.699432338    17.616375874   -14.901110459
 H       -6.136720904    19.998356399   -12.230988746
 H       -4.834343178    21.020588192   -11.568666805
 H       -5.306781577    21.177473572   -13.277111269
 H       -1.461561133    19.191352140   -13.443540567
 H       -2.246284693    20.707279607   -13.958700199
 H       -1.881577260    20.429045625   -12.235727804
 H       -1.641805158    11.120419112    -2.591959273
 H       -1.368356285     9.448364100    -2.050552118
 H       -0.359622889    10.142399872    -3.350984582
 H       -2.748102380     7.410135698    -5.588073429
 H       -1.047452907     7.894491596    -5.339542375
 H       -1.947876465     7.093804679    -4.028602230
 H       -3.604764399    12.892686741     2.691880596
 H       -2.221165313    13.573625932     1.800485748
 H       -3.782883627    14.430676761     1.812734748
 H       -3.601587969    12.858526371    -2.204929480
 H       -3.605366580    14.416005279    -1.331456581
 H       -2.141451438    13.399922758    -1.335852398
 H       -0.289339687    -0.362409394    -2.447984351
 H       -0.206040036    -1.916687859    -1.579980621
 H       -1.707550369    -0.959950366    -1.551370281
 H       -0.282915086    -0.356308200     2.450317639
 H       -1.733540878    -0.879423715     1.561675130
 H       -0.279341995    -1.910771219     1.577263294

