139   

Si        0.000000000     0.000000000     0.000000000
 C        1.869663632     0.000000000     0.000000000
 C       -0.661977635     1.723598633     0.000000000
 C        0.173999700     2.842520286    -0.056384267
 C       -0.362512863     4.130938569    -0.054527832
 C       -1.742982561     4.330346632     0.023064635
 C       -2.579168121     3.206662912     0.085156912
 C       -2.048356297     1.920206109     0.069993270
 C       -2.354489680     5.655046204     0.028541577
 C       -1.678796670     6.814315241    -0.038810720
 C       -2.296931999     8.136628628    -0.032883082
 C       -1.466855936     9.263307792    -0.108672368
 C       -2.005307484    10.545682915    -0.106559172
 C       -3.394335140    10.735189180    -0.038068137
 C       -4.223674018     9.614738286     0.035165438
 C       -3.678783643     8.329092844     0.040053241
Si       -4.023934639    12.468936262    -0.040333270
 C       -3.656937575    13.256308368    -1.652991948
 C       -3.025905970    12.653554576    -2.669510182
 C       -2.736903887    13.290776176    -3.954868191
 C       -2.070037780    12.557022624    -4.942244012
 C       -1.772272349    13.115041426    -6.178135494
 C       -1.986211095    14.487806461    -6.410840814
 C       -2.612190368    15.241810312    -5.394113154
 C       -3.001227879    14.641824101    -4.206227693
 N       -1.700505104    15.099889371    -7.645117341
 C       -0.931382801    14.364878301    -8.664013343
 C       -1.379786408    16.536852068    -7.579539068
 C        0.408856463    13.747645040    -8.225639111
 C        1.690190836    14.521199313    -8.576490316
 N        2.109546747    15.612525951    -7.675870591
 C        1.892552046    15.510889184    -6.299067475
 C        1.948270511    14.247727402    -5.667533395
 C        1.735068699    14.134766386    -4.304785998
 C        1.608918270    15.271897427    -3.493642977
 C        1.605569492    16.525060496    -4.110372683
 C        1.723417690    16.652242302    -5.488910924
 C        2.057948545    16.947552408    -8.286143226
 C        1.384658272    15.083808667    -2.060490527
 C        1.246529802    16.077362900    -1.173334546
Si        0.964781981    15.885429097     0.627376038
 C        0.882434847    14.114241741     1.146818909
 C        0.010206970    13.746815258     2.179846399
 C       -0.077673435    12.421660238     2.596904441
 C        0.701908617    11.427662811     1.992058871
 C        1.585073909    11.796727670     0.974196007
 C        1.687926292    13.127319257     0.569177466
 C        0.566787087    10.057854670     2.471230295
 C        1.255481079     9.000977864     2.008656691
 C        1.093139697     7.641479983     2.513858978
 C        0.191626051     7.330301830     3.536724339
 C        0.059928812     6.022297191     3.997081050
 C        0.836051683     4.994525603     3.448471754
 C        1.736972126     5.302737079     2.423291228
 C        1.858823354     6.610459603     1.957122687
Si        0.633240784     3.274212686     4.084576119
 C       -1.066934776     2.675312674     3.603432455
 C        1.941958063     2.151552494     3.363725742
 C        0.803142827     3.285518109     5.947144924
 C        2.371886245    16.700960034     1.545940792
 C       -0.652786723    16.736701248     1.025855246
 C       -5.878189982    12.485611287     0.209206439
 C       -3.208857033    13.454009733     1.314355493
 C       -0.619724454    -0.877521009    -1.528821743
 C       -0.609505419    -0.874535931     1.536000741
 H        1.261814796     2.750957391    -0.109644271
 H        0.310585504     4.986958248    -0.094663555
 H       -3.657800532     3.339568973     0.143944188
 H       -2.751675746     1.084268846     0.114821359
 H       -3.446562580     5.652777682     0.092392216
 H       -0.585168615     6.820060357    -0.090363841
 H       -0.386085469     9.136747201    -0.158550559
 H       -1.301963156    11.386176676    -0.154388596
 H       -5.311219697     9.703173276     0.090020101
 H       -4.346190425     7.472076535     0.100957077
 H       -4.007328543    14.296175891    -1.733787985
 H       -2.669132873    11.614474977    -2.613006056
 H       -1.820444698    11.510310871    -4.760956476
 H       -1.370427977    12.473166838    -6.954496603
 H       -2.810447838    16.299464917    -5.536300703
 H       -3.505996707    15.245079163    -3.450490500
 H       -1.029093014    16.902949994    -8.556618942
 H       -0.614107474    16.769102859    -6.817410756
 H       -2.300962273    17.100124967    -7.340619444
 H        2.393254680    16.894562591    -9.336050932
 H        2.769722979    17.616048814    -7.765135771
 H        1.057771561    17.407469941    -8.262251173
 H        2.166776573    13.356029347    -6.248517206
 H        1.706805749    13.141869413    -3.851544786
 H        1.493188954    17.426388170    -3.505695455
 H        1.683624257    17.643568934    -5.925711297
 H        1.300330844    14.022591172    -1.783487334
 H        1.312299787    17.130228442    -1.490407808
 H       -0.622861799    14.476157630     2.694710313
 H       -0.764515097    12.156970770     3.399239378
 H        2.210530060    11.045317247     0.496308355
 H        2.424656274    13.360539292    -0.206009270
 H       -0.174063920     9.928938562     3.268174154
 H        1.996031299     9.115810119     1.213791327
 H       -0.425199717     8.111339019     3.978610121
 H       -0.668664578     5.839761906     4.792273281
 H        2.366142756     4.539551867     1.958242436
 H        2.562963355     6.829965211     1.157637666
 H       -1.604512311    13.545997373    -9.023732985
 H       -0.779746101    15.032303845    -9.540386043
 H        0.371674087    13.556753133    -7.131937489
 H        0.493471862    12.739206619    -8.681610556
 H        2.544062342    13.794868187    -8.585712755
 H        1.611587024    14.912464586    -9.614855995
 H        2.264956358    -1.031374946    -0.015919208
 H        2.276698150     0.494440936     0.900301862
 H        2.275297109     0.521268030    -0.885019210
 H       -1.228907184     1.623500280     3.892971477
 H       -1.213138072     2.745324702     2.505877729
 H       -1.860264462     3.282512637     4.073146707
 H        1.944500934     2.202185070     2.260327489
 H        2.950609426     2.430173764     3.715817313
 H        1.767694456     1.099166126     3.649018767
 H        0.030564021     3.914943737     6.422311579
 H        0.705663106     2.267818339     6.363861062
 H        1.787342747     3.679975755     6.257128463
 H        3.340412929    16.233233803     1.290900627
 H        2.447366098    17.774719565     1.301091208
 H        2.241879515    16.614466902     2.639259566
 H       -1.504634197    16.198800760     0.567672024
 H       -0.832507217    16.792985416     2.112633734
 H       -0.667072545    17.769325302     0.634834180
 H       -6.396830789    11.947729377    -0.604720954
 H       -6.158968558    12.006238718     1.163032823
 H       -6.273079492    13.516320567     0.225576569
 H       -2.140372859    13.618467490     1.077109563
 H       -3.680672090    14.443437437     1.439044037
 H       -3.260934861    12.929940480     2.284514541
 H       -0.270791953    -0.373876861    -2.448561223
 H       -0.264584706    -1.922142029    -1.566093800
 H       -1.723343098    -0.898690283    -1.564745013
 H       -0.278655023    -0.348286035     2.450487425
 H       -1.711999255    -0.924563500     1.564589120
 H       -0.226942872    -1.908570237     1.588580045

