139   

Si        0.000000000     0.000000000     0.000000000
 C        1.869484564     0.000000000     0.000000000
 C       -0.629652499     1.735971168     0.000000000
 C        0.100114902     2.756812008    -0.618874800
 C       -0.373782676     4.068127848    -0.619847291
 C       -1.590764670     4.388506194    -0.011603497
 C       -2.323035233     3.364294169     0.602729119
 C       -1.850241377     2.054156307     0.608383942
 C       -2.125103626     5.746411486     0.011483583
 C       -1.520488900     6.814100057    -0.536603020
 C       -2.051896401     8.172901751    -0.515315420
 C       -3.268043574     8.498463401     0.091428182
 C       -3.737526675     9.811655807     0.087640295
 C       -3.004948850    10.826851804    -0.535915707
 C       -1.786357350    10.503391438    -1.146296106
 C       -1.314934174     9.193334172    -1.131057687
Si       -3.616271035    12.567492385    -0.547156368
 C       -2.896481717    13.466921671     0.877951465
 C       -2.060827266    12.919989191     1.770656473
 C       -1.485865141    13.639366654     2.909462189
 C       -0.620960467    12.949742643     3.774262649
 C       -0.050643527    13.583370353     4.865595398
 C       -0.303547169    14.949559654     5.102967464
 C       -1.168727943    15.641261402     4.243432689
 C       -1.765320750    14.981480027     3.173545054
 N        0.310763652    15.542337186     6.239191895
 C        1.790907165    15.529114839     6.195015363
 C       -0.226003378    16.853795466     6.643789577
 C        2.398060364    16.221950686     4.961334170
 C        2.789688300    15.208118181     3.866603174
 N        2.765155551    15.769823656     2.504107516
 C        3.555570790    16.909728579     2.275887637
 C        4.817052991    17.016638782     2.902207703
 C        5.612086782    18.130524949     2.691558576
 C        5.213144458    19.153321823     1.818354647
 C        3.978538974    19.030679501     1.175679801
 C        3.160239444    17.928824879     1.389025421
 C        1.423254008    15.750888008     1.900191406
 C        6.092830490    20.308627529     1.633043385
 C        5.817023735    21.342580728     0.827078576
Si        6.892139437    22.802958454     0.570638161
 C        5.963927564    24.316199687     1.075932507
 C        4.791589935    24.217010401     1.834368450
 C        4.096815158    25.363780022     2.211742675
 C        4.559501270    26.634775048     1.847250390
 C        5.733182909    26.730191107     1.093533911
 C        6.429642328    25.584370158     0.711954689
 C        3.796682266    27.806174520     2.266460830
 C        4.128119165    29.077094623     1.982355484
 C        3.364631139    30.247900553     2.402026443
 C        2.191192573    30.152895427     3.155564418
 C        1.492989449    31.298566899     3.535054532
 C        1.950080729    32.567560318     3.162423399
 C        3.124961987    32.665338125     2.406931668
 C        3.823755424    31.519449459     2.034566104
Si        1.021813241    34.081589823     3.667521902
 C       -0.811922527    33.719159904     3.705987590
 C        1.603687059    34.586371222     5.370004088
 C        1.339798508    35.468000688     2.454285241
 C        8.454679317    22.695298116     1.587324134
 C        7.316131703    22.898566602    -1.246692266
 C       -3.097400052    13.421464970    -2.125892028
 C       -5.478483898    12.605851259    -0.404826019
 C       -0.633750300    -0.854288985    -1.535990869
 C       -0.605905809    -0.901893085     1.521236712
 H        1.057341485     2.568365735    -1.113113496
 H        0.215952011     4.844537614    -1.104182558
 H       -3.273543551     3.591545752     1.082185469
 H       -2.464847639     1.298210780     1.104941195
 H       -3.087171953     5.851127588     0.521763978
 H       -0.558882684     6.707681084    -1.047634102
 H       -3.860602066     7.724746551     0.576366897
 H       -4.693103503    10.005650343     0.583441566
 H       -1.170210015    11.255566684    -1.647811750
 H       -0.364248378     8.961438018    -1.607814604
 H       -3.209342453    14.519373454     0.953224480
 H       -1.737147248    11.870093913     1.714854887
 H       -0.404747723    11.895749110     3.592914759
 H        0.583469282    13.026920984     5.552838012
 H       -1.384135280    16.693809728     4.401580641
 H       -2.450331445    15.532735444     2.528216032
 H        0.173133565    17.104559071     7.642636628
 H       -1.323401075    16.786211841     6.745822904
 H        0.018223887    17.678018578     5.955706640
 H        0.930637348    14.782673298     2.111239086
 H        1.513478722    15.828374794     0.802286397
 H        0.760155757    16.549809906     2.269105692
 H        5.169422150    16.223845400     3.555767739
 H        6.572330080    18.203091542     3.203070475
 H        3.643488317    19.811164944     0.490473282
 H        2.207416696    17.875749377     0.871866494
 H        7.014186278    20.249279290     2.227735021
 H        4.886017775    21.371618720     0.238323776
 H        4.386167954    23.250301788     2.151261736
 H        3.185013524    25.267662086     2.798257177
 H        6.113883800    27.705929251     0.797569925
 H        7.340050120    25.721288672     0.122057450
 H        2.899453156    27.582141105     2.851096214
 H        5.024919375    29.301871754     1.397526547
 H        1.811768581    29.177274190     3.454294927
 H        0.582815310    31.159795814     4.125127931
 H        3.529440149    33.629292893     2.086176843
 H        4.735930206    31.616521413     1.448576239
 H        2.162461911    16.011813070     7.126774125
 H        2.122687418    14.468403207     6.256452046
 H        1.683171905    16.960356484     4.549378461
 H        3.283125642    16.818061231     5.251105875
 H        3.808588824    14.803267375     4.059855155
 H        2.108618063    14.325550806     3.887893714
 H        2.268563129    -1.026827397     0.081024887
 H        2.269377308     0.579526261     0.851832089
 H        2.279475976     0.440809369    -0.925469063
 H       -1.393979857    34.627838713     3.941424689
 H       -1.063886556    32.959503221     4.466328117
 H       -1.164984787    33.342623904     2.728788187
 H        1.433149141    33.782064371     6.108042319
 H        2.685325752    34.812066302     5.374408680
 H        1.072823821    35.486248248     5.726940416
 H        1.086703718    35.163089730     1.422735144
 H        0.730302403    36.356955629     2.696077866
 H        2.398000483    35.782771226     2.459774375
 H        8.227581672    22.642384507     2.667816642
 H        9.046143660    21.800659993     1.323128011
 H        9.098269870    23.579225433     1.430573729
 H        6.409196555    23.027795541    -1.864740754
 H        7.989832711    23.745602251    -1.463320161
 H        7.819682061    21.975411365    -1.586739731
 H       -1.999460123    13.523628699    -2.193315455
 H       -3.435648654    12.856066855    -3.013194381
 H       -3.527346081    14.436435092    -2.194897345
 H       -5.821611995    12.204583996     0.565758883
 H       -5.867718297    13.636010255    -0.490252661
 H       -5.951535449    12.004530596    -1.202203745
 H       -0.289564798    -0.342146932    -2.452572798
 H       -0.285885430    -1.901007200    -1.587278837
 H       -1.738284356    -0.867283031    -1.562271561
 H       -0.313054739    -0.370062880     2.444670515
 H       -1.705370639    -1.001838837     1.527959413
 H       -0.182115194    -1.920500809     1.576684913

