139   

Si        0.000000000     0.000000000     0.000000000
 C        1.868720640     0.000000000     0.000000000
 C       -0.638469108     1.731490703     0.000000000
 C        0.099680881     2.757038213    -0.600457677
 C       -0.377978864     4.066563436    -0.603262263
 C       -1.609430503     4.379202582    -0.020367664
 C       -2.349477853     3.350326876     0.576319977
 C       -1.870049736     2.042567668     0.589561980
 C       -2.144222992     5.736650755    -0.002566573
 C       -1.521324169     6.802437823    -0.533180200
 C       -2.043519259     8.164309127    -0.522810089
 C       -3.272017504     8.497247007     0.054631871
 C       -3.731219806     9.813924021     0.040810289
 C       -2.957733181    10.827358255    -0.532974495
 C       -1.724074374    10.498320376    -1.108795002
 C       -1.276857463     9.180126361    -1.108415760
Si       -3.545308748    12.574061076    -0.562105031
 C       -2.070302774    13.645308175    -0.765758173
 C       -1.853341072    14.495117478    -1.777284733
 C       -0.656758743    15.334546225    -1.900511968
 C       -0.545580540    16.186343827    -3.009190668
 C        0.567284715    17.000019470    -3.170555795
 C        1.572366477    17.008012074    -2.193365522
 C        1.457873074    16.183642440    -1.070300131
 C        0.346536572    15.358430574    -0.927035317
 N        2.685203705    17.886646802    -2.455111295
 C        3.922439285    17.155231845    -2.798307864
 C        2.859002621    18.893989320    -1.392264151
 C        4.799925556    16.710219998    -1.612980746
 C        5.827157073    15.643643741    -2.040030803
 N        5.413285283    14.243735301    -1.806692212
 C        4.268678980    13.855878227    -2.565456069
 C        4.436279210    13.733666823    -3.956873143
 C        3.365290903    13.360394783    -4.753802453
 C        2.102208783    13.115127233    -4.195259604
 C        1.949960348    13.220470352    -2.810980820
 C        3.024105126    13.561198157    -1.995949580
 C        5.360632158    13.895941020    -0.375625942
 C        0.999044362    12.722847965    -5.076026829
 C       -0.240804185    12.467392423    -4.640737533
Si       -1.665791851    11.973629253    -5.678879812
 C       -2.168552107    10.324873910    -5.020361469
 C       -1.261492645     9.258062025    -5.074649539
 C       -1.617425857     8.004997685    -4.584371671
 C       -2.881359615     7.789572454    -4.018311620
 C       -3.780516157     8.857321453    -3.960184299
 C       -3.428621936    10.112936067    -4.455189662
 C       -3.209771820     6.459001998    -3.517550931
 C       -4.386266895     6.127554970    -2.959741824
 C       -4.723058997     4.800591593    -2.456671280
 C       -3.834729968     3.723983563    -2.508046068
 C       -4.202272510     2.471968420    -2.013698854
 C       -5.463277753     2.275541400    -1.444311259
 C       -6.353943952     3.356230480    -1.383886592
 C       -5.986495765     4.602157203    -1.882929642
Si       -5.988362911     0.637134961    -0.779370837
 C       -4.635605617    -0.632734849    -1.003419279
 C       -6.350077089     0.824850839     1.046017720
 C       -7.522218792     0.077964734    -1.688413714
 C       -3.013067672    13.253952147    -5.500747833
 C       -1.210524502    11.806269417    -7.481447971
 C       -4.783562640    12.785522838    -1.940989625
 C       -4.342636701    13.013721485     1.069830185
 C       -0.628856449    -0.846275831    -1.544475578
 C       -0.619501826    -0.907811032     1.512205638
 H        1.066459028     2.574477179    -1.076613362
 H        0.219623024     4.847962837    -1.069520614
 H       -3.315239419     3.571149217     1.028946964
 H       -2.488923072     1.284069085     1.076345534
 H       -3.121277682     5.839881552     0.477821614
 H       -0.547851290     6.693008943    -1.020689536
 H       -3.886215115     7.723932215     0.512417415
 H       -4.703860339    10.012965631     0.497159926
 H       -1.081298256    11.249154661    -1.580852489
 H       -0.322307309     8.939784601    -1.574365559
 H       -1.336399693    13.532881197     0.050146545
 H       -2.563246801    14.630685555    -2.603521791
 H       -1.327073888    16.193575426    -3.768024084
 H        0.670865961    17.641661321    -4.045445586
 H        2.228187404    16.191791354    -0.304623903
 H        0.267648088    14.723817785    -0.044332274
 H        3.667322753    19.584675600    -1.683975945
 H        3.086061308    18.482568505    -0.398075864
 H        1.928085980    19.484067246    -1.316159556
 H        6.366481124    14.037367942     0.056565056
 H        5.110194675    12.825191089    -0.271754791
 H        4.643064207    14.484137522     0.216283917
 H        5.413037139    13.920609731    -4.397795107
 H        3.508858945    13.261634131    -5.829359764
 H        0.976544203    13.033075399    -2.351058298
 H        2.874030104    13.629458106    -0.922387329
 H        1.286341705    12.659433907    -6.132373091
 H       -0.495403995    12.550679577    -3.568726800
 H       -0.257356951     9.370959407    -5.494249559
 H       -0.903647668     7.185213132    -4.637876959
 H       -4.765077547     8.719312027    -3.517347015
 H       -4.175460599    10.907660368    -4.383492601
 H       -2.412229720     5.717704829    -3.621748428
 H       -5.179398080     6.872902363    -2.850269103
 H       -2.840369876     3.853940832    -2.933094649
 H       -3.462042692     1.669031766    -2.080600248
 H       -7.352384570     3.261340157    -0.949294613
 H       -6.690246481     5.430141677    -1.827698338
 H        3.640920982    16.270926463    -3.418088340
 H        4.506555200    17.831239701    -3.464784748
 H        5.323920727    17.584301620    -1.186694227
 H        4.164459968    16.316431652    -0.798802492
 H        6.072937852    15.750049002    -3.120773876
 H        6.785228747    15.800101365    -1.494551654
 H        2.268440409    -1.026939518     0.073817370
 H        2.269378239     0.573619933     0.855487769
 H        2.278768301     0.447525995    -0.922082203
 H       -4.955824190    -1.626440143    -0.643958021
 H       -3.728640779    -0.352227981    -0.438241379
 H       -4.353167587    -0.740303485    -2.065820317
 H       -5.455309649     1.160357423     1.600676862
 H       -7.146792331     1.567805123     1.225342054
 H       -6.679687072    -0.130321344     1.490241483
 H       -7.330737825    -0.018489102    -2.772696479
 H       -7.872526949    -0.903175447    -1.323617774
 H       -8.352203774     0.795544593    -1.564544251
 H       -3.276897949    13.429416314    -4.442613154
 H       -2.691319746    14.222887829    -5.924445763
 H       -3.931020837    12.948963961    -6.032943232
 H       -0.409768867    11.060247551    -7.631432875
 H       -2.077861442    11.479934296    -8.083370020
 H       -0.857646751    12.765064697    -7.900497048
 H       -4.364821187    12.468728303    -2.913542082
 H       -5.685898157    12.173872734    -1.760142333
 H       -5.107991942    13.836461881    -2.036215246
 H       -3.657066683    12.829627020     1.916590733
 H       -4.629038204    14.080177246     1.101621322
 H       -5.255507077    12.419340789     1.248076286
 H       -0.280963170    -0.327282258    -2.455576318
 H       -0.276820384    -1.890934458    -1.600412733
 H       -1.733463648    -0.863379024    -1.576332143
 H       -0.326343689    -0.383997884     2.440141910
 H       -1.719881319    -0.999275979     1.514622629
 H       -0.203009166    -1.929303272     1.563201608

