139   

Si        0.000000000     0.000000000     0.000000000
 C        1.869297618     0.000000000     0.000000000
 C       -0.652504384     1.726908661     0.000000000
 C        0.189352553     2.826219725     0.192931564
 C       -0.324409110     4.123139757     0.189290545
 C       -1.689158060     4.350467051    -0.005666231
 C       -2.532060469     3.247099961    -0.196669975
 C       -2.022461175     1.951539924    -0.192588123
 C       -2.270617345     5.688972974    -0.017232716
 C       -1.574473956     6.825528883     0.154333984
 C       -2.152996830     8.165215100     0.143283098
 C       -3.517926059     8.395554948    -0.051527694
 C       -4.028135892     9.693270804    -0.054581437
 C       -3.179689246    10.789833756     0.129861343
 C       -1.811684798    10.563049298     0.325043144
 C       -1.306767929     9.265247432     0.334877737
Si       -3.845088492    12.511257473     0.127476124
 C       -2.477258995    13.651106160    -0.301264937
 C       -2.019111116    14.644577619     0.471815243
 C       -0.921934556    15.537517738     0.095889332
 C       -0.528152112    16.544424050     0.989660709
 C        0.503868605    17.414672186     0.681520316
 C        1.156616334    17.334539387    -0.569340912
 C        0.762171567    16.323819645    -1.467493817
 C       -0.244949416    15.432637026    -1.122355902
 N        2.198102500    18.224025726    -0.861456871
 C        2.081508521    19.606198869    -0.369736565
 C        2.862467233    18.092035987    -2.164037219
 C        0.756684816    20.318931214    -0.699587224
 C        0.645855953    20.823795591    -2.149261533
 N        1.558608206    21.919540966    -2.533186216
 C        2.844412466    21.508186805    -2.965998359
 C        2.909602562    20.696472872    -4.116995987
 C        4.134714846    20.260114757    -4.592794836
 C        5.330953757    20.646009020    -3.967463086
 C        5.261952778    21.475888446    -2.846381077
 C        4.038167191    21.915918677    -2.352490563
 C        1.521229006    23.066835844    -1.613763298
 C        6.597681334    20.154430398    -4.513651033
 C        7.802995649    20.449597526    -4.009289300
Si        9.388021871    19.834354957    -4.692911793
 C        9.046030158    18.766051291    -6.157598902
 C        9.129474215    17.371469059    -6.074386604
 C        8.867766047    16.580400957    -7.190853476
 C        8.504664939    17.161669144    -8.412523308
 C        8.414755591    18.554713010    -8.490592446
 C        8.680695690    19.349234207    -7.376576307
 C        8.240580550    16.290969684    -9.553253850
 C        7.889704805    16.719146615   -10.777768667
 C        7.625798303    15.847436788   -11.918024106
 C        7.715931725    14.454785252   -11.839050697
 C        7.455034550    13.659333510   -12.954123421
 C        7.091236417    14.239874693   -14.174170461
 C        7.000493081    15.634862848   -14.255677070
 C        7.267820361    16.427366698   -13.141884414
Si        6.746269594    13.184082904   -15.649352723
 C        6.001217297    11.557082651   -15.108537339
 C        5.546993452    14.048540759   -16.793537868
 C        8.359332397    12.875795308   -16.540512750
 C       10.437523190    21.291017514    -5.208987515
 C       10.275068317    18.869345857    -3.361766376
 C       -5.176149334    12.687364897    -1.172197721
 C       -4.550378795    12.877946916     1.816945149
 C       -0.609705587    -0.882240969    -1.531100799
 C       -0.624515890    -0.869828641     1.531440705
 H        1.265620858     2.712227061     0.348851034
 H        0.352979578     4.961614838     0.342167294
 H       -3.598510055     3.402106230    -0.349872456
 H       -2.728740345     1.130761200    -0.345479948
 H       -3.351870168     5.716789961    -0.180527704
 H       -0.492896461     6.796527723     0.317796258
 H       -4.196576352     7.558250268    -0.202288389
 H       -5.103852867     9.811214069    -0.209916921
 H       -1.103098786    11.385095426     0.474412674
 H       -0.241008968     9.107561728     0.490925181
 H       -2.037457957    13.453677434    -1.292414182
 H       -2.437755411    14.867049923     1.462160442
 H       -1.033665768    16.638329764     1.951289568
 H        0.813983172    18.157973401     1.409865355
 H        1.238674679    16.227056845    -2.437788015
 H       -0.520091838    14.648208316    -1.829647524
 H        3.722734238    18.785352579    -2.220023558
 H        2.203076499    18.299995304    -3.022213143
 H        3.272749332    17.070258764    -2.263574892
 H        0.471227947    23.376613902    -1.470553634
 H        2.050033054    23.917788984    -2.080178860
 H        1.966170831    22.875187339    -0.624973347
 H        1.991495128    20.426137113    -4.635325772
 H        4.170184353    19.623219345    -5.478123153
 H        6.178003039    21.791942571    -2.345835701
 H        4.020320053    22.563313444    -1.481066912
 H        6.466073320    19.507813881    -5.393975870
 H        7.912566723    21.098666513    -3.127258323
 H        9.404255730    16.860949933    -5.147044269
 H        8.944311279    15.497683324    -7.108355395
 H        8.135018681    19.031753047    -9.428247613
 H        8.593935138    20.433175255    -7.499277262
 H        8.349115498    15.221860821    -9.347424508
 H        7.781536029    17.788006819   -10.984854769
 H        7.992870647    13.977655518   -10.900536149
 H        7.542765109    12.576241875   -12.830166335
 H        6.720404488    16.144353509   -15.181844410
 H        7.193882147    17.510110953   -13.226216656
 H        2.216903947    19.574903587     0.738434008
 H        2.941671587    20.198486487    -0.758081767
 H       -0.093928161    19.632016340    -0.503530584
 H        0.615236947    21.159427555     0.005191157
 H        0.782825058    19.971793940    -2.851953121
 H       -0.390400255    21.202033049    -2.324051351
 H        2.267093736    -1.029663683    -0.045415781
 H        2.276673745     0.470258286     0.912500721
 H        2.272376152     0.548366158    -0.870276946
 H        5.725594596    10.935544545   -15.979096750
 H        5.085113099    11.715948083   -14.511032747
 H        6.703248611    10.968600793   -14.492372056
 H        4.613588189    14.316711344   -16.266153906
 H        5.974328448    14.977357616   -17.210098243
 H        5.272072002    13.401522129   -17.645600935
 H        9.087406796    12.361417179   -15.887670851
 H        8.211228313    12.247501546   -17.436270240
 H        8.824544489    13.822544015   -16.869340473
 H        9.912045725    21.932866568    -5.938747816
 H       10.704217326    21.923790806    -4.344071614
 H       11.379363042    20.954928012    -5.679729826
 H        9.644960324    18.053362353    -2.963851509
 H       11.207062478    18.418146854    -3.747069870
 H       10.548041992    19.517697640    -2.509936803
 H       -4.804207015    12.394076481    -2.170593268
 H       -6.053642343    12.057734458    -0.944827642
 H       -5.526239695    13.733131514    -1.243225017
 H       -3.778847028    12.784637207     2.603076592
 H       -4.962448952    13.901202547     1.868734690
 H       -5.364881316    12.176667754     2.072289773
 H       -0.275011184    -0.365349684    -2.448982146
 H       -0.230302214    -1.918299990    -1.575564864
 H       -1.712321615    -0.930002279    -1.562392457
 H       -0.276599102    -0.362538404     2.449671186
 H       -1.728402968    -0.888156445     1.564102866
 H       -0.271237098    -1.915054236     1.573481510

