139   

Si        0.000000000     0.000000000     0.000000000
 C        1.869447951     0.000000000     0.000000000
 C       -0.634711675     1.733963021     0.000000000
 C        0.103443803     2.763962053    -0.592913847
 C       -0.377011230     4.073013282    -0.592232787
 C       -1.608706610     4.381660096    -0.008201216
 C       -2.349311110     3.348112540     0.580079093
 C       -1.870329698     2.040371237     0.583959175
 C       -2.151125746     5.736272678     0.016122215
 C       -1.541678086     6.813278219    -0.507842482
 C       -2.083167553     8.168251039    -0.484073225
 C       -3.315023359     8.477556083     0.099916318
 C       -3.794910766     9.786850114     0.100254652
 C       -3.046074455    10.816872616    -0.477932345
 C       -1.811179533    10.511433416    -1.063446376
 C       -1.338682859     9.201415420    -1.068399013
Si       -3.671415600    12.551919382    -0.482925019
 C       -2.227170860    13.677026182    -0.576286368
 C       -1.994766247    14.565368111    -1.551031847
 C       -0.826832772    15.449213881    -1.591242789
 C       -0.690392780    16.341420201    -2.666468662
 C        0.395556743    17.197044831    -2.749748632
 C        1.369889843    17.205605278    -1.731324769
 C        1.240521812    16.312211096    -0.658454888
 C        0.163568527    15.433226942    -0.606833820
 N        2.460116778    18.105903156    -1.874409699
 C        2.062100705    19.532029174    -1.888783883
 C        3.614499723    17.854664789    -0.993331686
 C        1.282642985    19.988339097    -0.641828948
 C       -0.238442130    20.016233827    -0.896080353
 N       -1.045029252    19.831832742     0.322606236
 C       -0.845070299    20.747769233     1.368569161
 C       -0.536534679    22.093884456     1.072660470
 C       -0.336709841    23.008347234     2.093487275
 C       -0.481929300    22.639622171     3.438749859
 C       -0.818491293    21.314447555     3.728413424
 C       -1.006253219    20.380204198     2.718457119
 C       -1.214626863    18.417140937     0.691436005
 C       -0.258810874    23.646389581     4.477730964
 C       -0.369025119    23.408035928     5.791421300
Si       -0.098631686    24.638112314     7.121036713
 C       -1.658683010    24.801924664     8.092986635
 C       -2.872062740    24.336505531     7.576510869
 C       -4.049553697    24.461584357     8.313200780
 C       -4.041481093    25.059302089     9.576425725
 C       -2.824726460    25.528866483    10.089585142
 C       -1.646776999    25.403531241     9.357658071
 C       -5.248600643    25.211470011    10.382381043
 C       -6.473643199    24.805480508    10.007810963
 C       -7.681697239    24.956796033    10.812325758
 C       -7.676409641    25.552070403    12.076878045
 C       -8.855291921    25.675942885    12.811345577
 C      -10.069654431    25.214047825    12.292741789
 C      -10.077728399    24.618064442    11.025406344
 C       -8.897715505    24.488840901    10.297127761
Si      -11.631913304    25.376877000    13.263190036
 C      -11.538791361    26.872105251    14.381740357
 C      -13.085114706    25.578143076    12.104193443
 C      -11.850445794    23.830899921    14.289718103
 C        1.274471369    24.009795860     8.222076279
 C        0.351372007    26.313596742     6.430104505
 C       -4.814852244    12.770224684    -1.941744752
 C       -4.584430290    12.922283803     1.104176395
 C       -0.632583893    -0.855846996    -1.535766612
 C       -0.604407995    -0.901886738     1.521991753
 H        1.072295378     2.584809967    -1.067396433
 H        0.219587175     4.857120011    -1.055265059
 H       -3.311179971     3.566350638     1.040623731
 H       -2.491805681     1.276913906     1.060016019
 H       -3.124699010     5.830176765     0.506269048
 H       -0.568318799     6.718756482    -0.998495131
 H       -3.912886750     7.693279569     0.560626262
 H       -4.765761340     9.967198354     0.569772698
 H       -1.184311186    11.278710965    -1.530016704
 H       -0.377876090     8.981408465    -1.530562697
 H       -1.529437637    13.564813214     0.270139852
 H       -2.670362979    14.700766828    -2.405674427
 H       -1.443516607    16.355175352    -3.454849381
 H        0.509849253    17.856155977    -3.607948947
 H        1.976204203    16.294850919     0.140617339
 H        0.092787326    14.732778852     0.227100467
 H        4.466464588    18.460722404    -1.349652605
 H        3.918253148    16.796384047    -1.076742261
 H        3.438759327    18.092909857     0.067261806
 H       -1.378786874    17.806522578    -0.216228117
 H       -2.119397830    18.307561781     1.315603297
 H       -0.349242926    17.993805742     1.226306514
 H       -0.451338953    22.420426504     0.040478147
 H       -0.076549357    24.036984246     1.841959810
 H       -0.939194694    20.999875763     4.766535249
 H       -1.265245221    19.361440341     2.989104225
 H        0.008548113    24.631941008     4.073925091
 H       -0.637243801    22.406877639     6.166084972
 H       -2.940007952    23.863225542     6.590914745
 H       -4.981117169    24.089011048     7.890689679
 H       -2.797309363    25.997653768    11.071313869
 H       -0.727961459    25.787433088     9.808970303
 H       -5.094072579    25.695951507    11.350936523
 H       -6.627764276    24.321340184     9.038747175
 H       -6.745750521    25.924999834    12.500957339
 H       -8.786792064    26.148492886    13.795158073
 H      -10.996244991    24.239394620    10.568673392
 H       -8.924348772    24.020874277     9.314650704
 H        2.986742848    20.140818178    -2.006547525
 H        1.468997922    19.709537585    -2.813711642
 H        1.507077039    19.321885183     0.213412879
 H        1.625838169    20.988178315    -0.317446097
 H       -0.535496965    20.978112517    -1.371611758
 H       -0.528011590    19.222256305    -1.623592273
 H        2.268336828    -1.027043872     0.079041272
 H        2.269526252     0.577783031     0.852923601
 H        2.279425088     0.442442482    -0.924700766
 H      -12.495662747    27.036900366    14.908291856
 H      -11.314872913    27.788420515    13.805929277
 H      -10.754315512    26.760746273    15.150520128
 H      -12.938624809    26.438248520    11.425868480
 H      -13.237192784    24.681772527    11.478016377
 H      -14.021314651    25.752292454    12.663762657
 H      -11.005643241    23.689065271    14.987590140
 H      -12.776382817    23.873236281    14.889612357
 H      -11.905236949    22.929750866    13.652865593
 H        1.005214682    23.045180639     8.689148749
 H        2.204578468    23.851090029     7.647039045
 H        1.501975277    24.721236490     9.034702174
 H       -0.449416006    26.705846306     5.776712664
 H        0.507647872    27.052215164     7.236419754
 H        1.280253536    26.267831904     5.834595297
 H       -4.295215470    12.564612311    -2.895497187
 H       -5.675303864    12.079201196    -1.883129934
 H       -5.216251808    13.798049838    -1.990732822
 H       -3.954640020    12.717330618     1.988812347
 H       -4.887237411    13.984257478     1.151608354
 H       -5.499907050    12.312331485     1.198363595
 H       -0.287603136    -0.344102823    -2.452285206
 H       -0.284253025    -1.902413269    -1.586145214
 H       -1.737032109    -0.869186749    -1.562882451
 H       -0.310049176    -0.369723809     2.444805491
 H       -1.703900940    -1.000968579     1.530522472
 H       -0.181132294    -1.920653019     1.576925589

