139   

Si        0.000000000     0.000000000     0.000000000
 C        1.869332291     0.000000000     0.000000000
 C       -0.652548580     1.726914524     0.000000000
 C        0.178869295     2.821742248    -0.253858667
 C       -0.334397100     4.118963037    -0.249151819
 C       -1.689211871     4.350390256     0.001958860
 C       -2.522118182     3.251119743     0.251845533
 C       -2.012422818     1.955699171     0.250331862
 C       -2.270618568     5.688707842     0.017093084
 C       -1.585218068     6.823383071    -0.203524748
 C       -2.167930372     8.161279363    -0.188100365
 C       -1.335942014     9.261579606    -0.435189908
 C       -1.847059345    10.557017254    -0.430775520
 C       -3.207564851    10.781053010    -0.186985788
 C       -4.040707183     9.684835415     0.058965436
 C       -3.524101726     8.389647590     0.061229104
Si       -3.891723321    12.494832316    -0.179620630
 C       -5.696528996    12.395456158    -0.474465391
 C       -6.647980072    12.832656164     0.361042083
 C       -8.083630866    12.736595887     0.092075055
 C       -8.988248343    13.229648092     1.043060660
 C      -10.356371595    13.162443373     0.836004155
 C      -10.872822106    12.637113261    -0.368506875
 C       -9.964336614    12.141372214    -1.324251640
 C       -8.598143643    12.172858334    -1.078991385
 N      -12.261385643    12.571849867    -0.572021292
 C      -13.090759649    13.605824652     0.071272260
 C      -12.722636700    12.232739825    -1.929525066
 C      -12.790894114    15.025382200    -0.442007360
 C      -13.887454917    16.036504473    -0.069828401
 N      -15.242045569    15.741267623    -0.590307076
 C      -15.284682866    15.157619486    -1.876669435
 C      -14.603092954    15.813845587    -2.923841468
 C      -14.614100062    15.283303670    -4.202359787
 C      -15.323277261    14.107043374    -4.492447651
 C      -16.016177098    13.474736544    -3.458233907
 C      -16.009782111    13.990996500    -2.166782666
 C      -16.146327629    15.172441834     0.421983964
 C      -15.301095724    13.589298173    -5.862465002
 C      -15.938666809    12.478862296    -6.254928854
Si      -15.937104836    11.797191762    -7.955997612
 C      -17.679052137    11.745722228    -8.560669756
 C      -18.652447437    12.574860694    -7.990150996
 C      -19.967436460    12.535524461    -8.447126040
 C      -20.339450352    11.674977326    -9.488199290
 C      -19.363632304    10.852189435   -10.058380938
 C      -18.046798372    10.886373371    -9.601220165
 C      -21.729760454    11.670272431    -9.931756353
 C      -22.216963524    10.893612517   -10.914187267
 C      -23.607368454    10.889309476   -11.357345433
 C      -24.583030989    11.711921124   -10.787302797
 C      -25.900673770    11.675270877   -11.242027009
 C      -26.274436534    10.807186823   -12.273564579
 C      -25.298826228     9.981296164   -12.845759746
 C      -23.981881738    10.025196806   -12.394582932
Si      -28.019203679    10.758547413   -12.875805634
 C      -29.190086598    11.178065575   -11.480026985
 C      -28.200364294    12.009973002   -14.251441281
 C      -28.429101140     9.050652436   -13.516176910
 C      -14.932656382    12.851679485    -9.123481298
 C      -15.226561111    10.070917465    -7.882407019
 C       -3.500995036    13.283389947     1.467152542
 C       -3.134228806    13.496681841    -1.563385104
 C       -0.627008027    -0.867840652    -1.531378512
 C       -0.607138701    -0.885779648     1.530190876
 H        1.246463897     2.704329829    -0.458623135
 H        0.335054962     4.954429537    -0.446436936
 H       -3.580868687     3.409235262     0.449357001
 H       -2.710496930     1.138258667     0.451462935
 H       -3.343985179     5.718432318     0.227738353
 H       -0.512230834     6.793988962    -0.414129338
 H       -0.277172325     9.105110153    -0.632080799
 H       -1.150271866    11.376142231    -0.627593522
 H       -5.111872471     9.802610391     0.256004449
 H       -4.192021817     7.552718873     0.257746843
 H       -5.957845606    11.930026678    -1.438805218
 H       -6.419375809    13.302340946     1.326826776
 H       -8.612188973    13.664374325     1.969725530
 H      -11.027936626    13.521466686     1.610018810
 H      -10.318182642    11.719504353    -2.259782090
 H       -7.918304489    11.764217825    -1.828777321
 H      -13.825579766    12.271739042    -1.980561330
 H      -12.425014031    11.194643981    -2.163287808
 H      -12.330242399    12.905720177    -2.709732069
 H      -16.176116980    15.850178510     1.293833269
 H      -15.866164585    14.166440627     0.771116770
 H      -17.174022730    15.135492715     0.017545045
 H      -14.074543006    16.742708358    -2.721460270
 H      -14.073910520    15.797707736    -4.998145613
 H      -16.578531269    12.561003259    -3.658087456
 H      -16.559298781    13.469353027    -1.389393520
 H      -14.706136411    14.206573701    -6.548608676
 H      -16.528523530    11.879307738    -5.542375474
 H      -18.418532463    13.269307927    -7.176256421
 H      -20.712213991    13.184204476    -7.989175826
 H      -19.626542873    10.174584335   -10.868543763
 H      -17.328411928    10.218626560   -10.084464371
 H      -22.382775089    12.365677031    -9.395966032
 H      -21.564199489    10.198253453   -11.450209599
 H      -24.319515779    12.392710226    -9.979688614
 H      -26.617893549    12.344203676   -10.758116034
 H      -25.532030479     9.282733105   -13.653984272
 H      -23.237711324     9.376929525   -12.853707810
 H      -14.158211230    13.342064675    -0.110917991
 H      -12.949320887    13.546041010     1.173011154
 H      -11.817540120    15.372552771    -0.042813344
 H      -12.654757153    15.000329962    -1.542421627
 H      -13.936698320    16.151566561     1.034767948
 H      -13.608130498    17.041147650    -0.472148787
 H        2.267391287    -1.028367947     0.066377131
 H        2.271559855     0.566251555     0.859272699
 H        2.277052481     0.451952545    -0.921411111
 H      -30.242938876    11.087569214   -11.801534955
 H      -29.043516339    12.210693707   -11.118012225
 H      -29.046151782    10.498917962   -10.620135783
 H      -27.957610824    13.029764308   -13.902137004
 H      -27.523539178    11.781733910   -15.094402584
 H      -29.231406145    12.028412961   -14.646026838
 H      -28.246922264     8.279821494   -12.745528103
 H      -29.491220019     8.979927044   -13.811249942
 H      -27.823196079     8.787901357   -14.400827313
 H      -15.332809846    13.880597735    -9.182016861
 H      -13.877834452    12.917538936    -8.802866694
 H      -14.944483026    12.438085534   -10.148141255
 H      -15.852496755     9.403415574    -7.262834276
 H      -15.151100310     9.619012027    -8.886874483
 H      -14.212490759    10.075971110    -7.443005122
 H       -3.940373117    12.707880617     2.302428044
 H       -2.410887632    13.331152576     1.639946161
 H       -3.893737813    14.313912858     1.524531218
 H       -3.281388246    13.005771727    -2.542367111
 H       -3.592815505    14.500330647    -1.623821941
 H       -2.048710212    13.634827912    -1.419504806
 H       -0.280993273    -0.360351977    -2.450113719
 H       -0.274775619    -1.913374614    -1.574655778
 H       -1.731095037    -0.885047152    -1.561874636
 H       -0.282885011    -0.363142520     2.448597153
 H       -1.709196019    -0.947022884     1.556350110
 H       -0.215614484    -1.917191821     1.578592591

