139   

Si        0.000000000     0.000000000     0.000000000
 C        1.869342713     0.000000000     0.000000000
 C       -0.629405497     1.735965620     0.000000000
 C        0.070232173     2.744146242     0.672456038
 C       -0.402181152     4.055984581     0.674487105
 C       -1.587523348     4.389663826     0.013133439
 C       -2.289421540     3.378153847    -0.655178883
 C       -1.818022586     2.067492055    -0.661732593
 C       -2.119530605     5.748356385    -0.011308498
 C       -1.543365959     6.805910139     0.584983722
 C       -2.074142871     8.165065273     0.561410508
 C       -3.259398574     8.500244431    -0.099551463
 C       -3.730450329     9.812814127    -0.096509574
 C       -3.018392189    10.820123692     0.562297737
 C       -1.829900732    10.488788385     1.224979180
 C       -1.366765759     9.175543401     1.226147703
Si       -3.630224586    12.560218529     0.574064889
 C       -2.187025831    13.658344390     0.841028388
 C       -2.035424135    14.506385445     1.866200226
 C       -0.866578607    15.370744156     2.048373698
 C       -0.822455291    16.219298146     3.165658133
 C        0.260228817    17.055225964     3.382423105
 C        1.354499133    17.042203557     2.493829690
 C        1.312546807    16.199652463     1.373604876
 C        0.202759880    15.391413913     1.150087444
 N        2.428535761    17.924312886     2.777111480
 C        3.127873708    17.664344834     4.052323920
 C        3.332754403    18.218149856     1.655062286
 C        4.276161934    16.641025306     4.007860664
 C        3.836692476    15.194305990     3.714649276
 N        3.202024251    14.480934241     4.833746987
 C        3.861068257    14.474197758     6.069092874
 C        5.272788686    14.418417253     6.105225218
 C        5.942175977    14.410898453     7.317252188
 C        5.243267693    14.410007823     8.533604395
 C        3.846592158    14.435002732     8.495144661
 C        3.157742594    14.460196213     7.289682716
 C        1.735112450    14.533209421     4.842508852
 C        6.003021665    14.401915348     9.783939880
 C        5.450900993    14.400295799    11.004900254
Si        6.399563993    14.390176133    12.570395155
 C        8.206263040    14.382735412    12.192418108
 C        8.952411859    13.199467141    12.241845539
 C       10.315336297    13.210912939    11.953739211
 C       10.963101915    14.400408631    11.596442502
 C       10.213725078    15.579234612    11.539152880
 C        8.850744016    15.571645427    11.831305125
 C       12.392184300    14.361690183    11.303790710
 C       13.130805887    15.428719846    10.954787665
 C       14.559850892    15.391044602    10.661953941
 C       15.310504560    14.213383530    10.718763885
 C       16.674857085    14.223313656    10.430836935
 C       17.318749230    15.412110812    10.070741959
 C       16.568446964    16.593169806    10.012251927
 C       15.207396048    16.581854279    10.307387684
Si       19.125280022    15.426182232     9.689324884
 C       19.640675052    13.779240755     8.970557717
 C       19.508433724    16.773313803     8.451023776
 C       20.057753728    15.742340961    11.277375246
 C        5.967342992    15.916435079    13.558795207
 C        5.928773300    12.867833222    13.547141728
 C       -4.392274311    12.996221252    -1.074183181
 C       -4.898868517    12.738711183     1.931323107
 C       -0.606056848    -0.905993293    -1.518686026
 C       -0.632615378    -0.852965848     1.537397219
 H        1.002127886     2.545144212     1.209184568
 H        0.163985830     4.822645415     1.200895042
 H       -3.214693089     3.615858652    -1.176827210
 H       -2.407857999     1.322304094    -1.202473131
 H       -3.055244592     5.863093253    -0.566527494
 H       -0.607784850     6.690319603     1.140643194
 H       -3.827802432     7.733929126    -0.623329278
 H       -4.664148555    10.014052724    -0.628508122
 H       -1.232718736    11.237659065     1.756477718
 H       -0.442297629     8.935068752     1.748669261
 H       -1.416984210    13.568355698     0.057276427
 H       -2.785863932    14.619487217     2.659617525
 H       -1.657429892    16.232713136     3.866754865
 H        0.266328146    17.737800208     4.230403158
 H        2.137890514    16.175153787     0.668043448
 H        0.183689026    14.753533717     0.264920110
 H        4.019053168    19.029874335     1.954310345
 H        2.738395791    18.592969326     0.802353754
 H        3.933978120    17.360967799     1.314329848
 H        1.346131476    14.469254668     3.808994401
 H        1.326755215    15.448763325     5.300667907
 H        1.342294407    13.653029444     5.384153481
 H        5.839845948    14.377976819     5.180157706
 H        7.033074017    14.388237800     7.323333347
 H        3.279257066    14.434386476     9.426890919
 H        2.073300298    14.484669614     7.305678434
 H        7.091991766    14.396385745     9.626965190
 H        4.358868952    14.402794194    11.138887877
 H        8.500498305    12.239860332    12.508393547
 H       10.879774676    12.281751750    12.004734480
 H       10.692378653    16.517062476    11.263317118
 H        8.317773974    16.525066599    11.768145378
 H       12.849610010    13.371327252    11.388052064
 H       12.673186826    16.419003842    10.871169873
 H       14.832689150    13.273931501    10.991121792
 H       17.208233375    13.270718164    10.494608764
 H       17.016550358    17.551755557     9.736371792
 H       14.642048052    17.510708284    10.258567388
 H        3.531931215    18.648201977     4.393735286
 H        2.383807891    17.355634593     4.820122044
 H        5.028813568    16.947032583     3.257552389
 H        4.809641804    16.676391029     4.982120549
 H        3.147318147    15.175011544     2.839836342
 H        4.727893621    14.595306294     3.405443111
 H        2.268884486    -1.028409293    -0.052536090
 H        2.279612621     0.467165278     0.912367283
 H        2.268792013     0.556080670    -0.867601352
 H       20.706049712    13.786850749     8.678869672
 H       19.051483116    13.534904639     8.068093689
 H       19.502559053    12.955162162     9.692151913
 H       18.905935041    16.655299630     7.532202272
 H       19.300191846    17.777424783     8.860002793
 H       20.572298848    16.752252626     8.154577216
 H       19.854542641    14.955763721    12.026299434
 H       21.148251915    15.767205311    11.106201982
 H       19.767774040    16.708221656    11.728821252
 H        6.151074405    16.840296774    12.982043514
 H        4.902727497    15.916977328    13.852208707
 H        6.568800350    15.975284026    14.483799848
 H        6.081745309    11.945208026    12.958720174
 H        6.529555320    12.782631120    14.470140025
 H        4.865109580    12.894718023    13.843652029
 H       -3.684428560    12.822564014    -1.904971624
 H       -5.296579631    12.395839032    -1.276076508
 H       -4.686666487    14.061193760    -1.107575762
 H       -4.469752980    12.490920915     2.919349322
 H       -5.293283733    13.769101127     1.983358251
 H       -5.757006039    12.061556553     1.768948085
 H       -0.312485210    -0.378099435    -2.444056278
 H       -0.182877351    -1.925100421    -1.570470691
 H       -1.705580341    -1.005587437    -1.525107191
 H       -0.286763104    -0.340603012     2.453211056
 H       -1.737205825    -0.864099008     1.564874513
 H       -0.286488698    -1.900163232     1.588769187

