139   

Si        0.000000000     0.000000000     0.000000000
 C        1.869364212     0.000000000     0.000000000
 C       -0.647032453     1.729314605     0.000000000
 C        0.159332217     2.804268894    -0.387016556
 C       -0.342158447     4.105773466    -0.382365030
 C       -1.660915069     4.361783188     0.002294858
 C       -2.469201874     3.282944660     0.385083800
 C       -1.970854064     1.982838497     0.382895148
 C       -2.228510988     5.706063994     0.022706464
 C       -1.562742837     6.822596811    -0.318008462
 C       -2.130600751     8.166761409    -0.297500787
 C       -1.321453633     9.245704453    -0.678889624
 C       -1.819174199    10.546191305    -0.675304156
 C       -3.143545714    10.796769555    -0.295212970
 C       -3.953499511     9.722263927     0.085768028
 C       -3.449802725     8.421872445     0.086992970
Si       -3.802670642    12.519278932    -0.290498421
 C       -5.633951869    12.438647684    -0.278979386
 C       -6.428492531    12.948875211     0.670617758
 C       -7.891033857    12.865643464     0.647183085
 C       -8.617595077    13.440018713     1.702305319
 C      -10.001212943    13.388130754     1.726657963
 C      -10.705458553    12.777839842     0.669176046
 C       -9.983923673    12.196834131    -0.383235070
 C       -8.592968840    12.226287842    -0.376723222
 N      -12.123874588    12.756854022     0.753156094
 C      -12.744275620    14.101425838     0.756834357
 C      -12.803031132    11.828310345    -0.167935792
 C      -12.420509329    14.956816819    -0.481080076
 C      -11.264211530    15.942646014    -0.214624774
 N      -10.504471901    16.305527252    -1.425541604
 C      -11.255897550    16.809631595    -2.504653664
 C      -12.316380033    17.705507646    -2.246060033
 C      -13.071594131    18.216571867    -3.287934300
 C      -12.776228231    17.898805782    -4.622335801
 C      -11.707750647    17.035876085    -4.877120926
 C      -10.950327062    16.500330380    -3.842461402
 C       -9.443763932    15.336576295    -1.745471824
 C      -13.608086131    18.467584752    -5.683525636
 C      -13.426690982    18.239398227    -6.991142243
Si      -14.458400232    18.943255983    -8.330457668
 C      -15.782605835    20.011369591    -7.615798727
 C      -17.138189717    19.723908234    -7.795743570
 C      -18.117856840    20.549741907    -7.243510232
 C      -17.764384825    21.676428298    -6.496812034
 C      -16.404055780    21.962308697    -6.315775025
 C      -15.424514793    21.141966447    -6.867650372
 C      -18.754266314    22.567863791    -5.900979504
 C      -20.085006204    22.407948982    -5.998836085
 C      -21.075396850    23.299019450    -5.403242061
 C      -20.722793914    24.428039305    -4.658225534
 C      -21.702722360    25.252481545    -4.106785292
 C      -23.060254420    24.970007538    -4.294971549
 C      -23.415726141    23.839996846    -5.041373814
 C      -22.434865367    23.014127459    -5.585313426
Si      -24.353536006    26.065448541    -3.562273706
 C      -23.766176992    27.840180522    -3.581277195
 C      -25.938474088    25.941212908    -4.545867596
 C      -24.659045625    25.516958093    -1.802317154
 C      -13.381617429    19.983224569    -9.448885000
 C      -15.196472308    17.531781393    -9.307954077
 C       -3.141443800    13.408388706     1.211536443
 C       -3.278859487    13.411896524    -1.845778535
 C       -0.629550999    -0.863309870    -1.532792699
 C       -0.605011955    -0.891620734     1.527735103
 H        1.198367090     2.667138426    -0.698994641
 H        0.307923235     4.925314900    -0.683754741
 H       -3.499626280     3.460224936     0.688170897
 H       -2.648514934     1.182114727     0.691944086
 H       -3.272803308     5.756618916     0.345420794
 H       -0.518629612     6.771869876    -0.640618163
 H       -0.291053202     9.068029689    -0.981066179
 H       -1.141229210    11.347796876    -0.980823244
 H       -4.994967779     9.860996770     0.394725932
 H       -4.098855707     7.602237585     0.390684219
 H       -6.055307081    11.917561004    -1.154475159
 H       -6.038599632    13.474463917     1.552280117
 H       -8.086364973    13.926173369     2.521206985
 H      -10.551354817    13.804661278     2.568049644
 H      -10.498933826    11.718096306    -1.211073607
 H       -8.050858086    11.751781774    -1.196371281
 H      -13.863537422    11.748953354     0.130033137
 H      -12.364234205    10.820562420    -0.062112818
 H      -12.762369352    12.125394675    -1.227534856
 H       -8.886208474    15.077505654    -0.825872327
 H       -8.718525714    15.801072045    -2.436658176
 H       -9.817470971    14.397913513    -2.185134902
 H      -12.545314405    17.996484952    -1.224745718
 H      -13.900765371    18.889808138    -3.065824732
 H      -11.456872237    16.771822642    -5.905258900
 H      -10.132540173    15.829245695    -4.085114048
 H      -14.415442772    19.109555660    -5.300930479
 H      -12.613835586    17.589081526    -7.349280686
 H      -17.476478477    18.855274753    -8.367138526
 H      -19.166807643    20.305051387    -7.399906126
 H      -16.107717260    22.835879856    -5.737956637
 H      -14.378684695    21.415759136    -6.694692398
 H      -18.334249790    23.411815581    -5.345663736
 H      -20.504988020    21.564162581    -6.554424169
 H      -19.673750624    24.672953970    -4.501455211
 H      -21.364667513    26.119675503    -3.532505142
 H      -24.459749370    23.569678958    -5.222118519
 H      -22.731731933    22.139183218    -6.160764355
 H      -13.845291840    13.964376134     0.850264054
 H      -12.427950410    14.620347275     1.689171289
 H      -12.166805078    14.305079158    -1.339435840
 H      -13.317664605    15.515385045    -0.807581304
 H      -11.652759048    16.879241399     0.245162892
 H      -10.550267114    15.517502574     0.528208366
 H        2.267565184    -1.027805495     0.074069556
 H        2.270743305     0.572812827     0.855456608
 H        2.278514684     0.445392218    -0.923819187
 H      -24.551324201    28.524741479    -3.213961617
 H      -23.497999444    28.160968708    -4.604382052
 H      -22.876959315    27.984890361    -2.943206669
 H      -25.767737456    26.178392955    -5.611613659
 H      -26.374399174    24.928200754    -4.494403149
 H      -26.699387483    26.646707544    -4.167011176
 H      -23.739312901    25.585238484    -1.193973230
 H      -25.429773547    26.139181400    -1.314522091
 H      -25.002011739    24.467375986    -1.762398682
 H      -12.901900288    20.809209252    -8.893299350
 H      -12.578142777    19.382253203    -9.909661614
 H      -13.973695472    20.433467169   -10.265874513
 H      -15.829771398    16.888579475    -8.670334330
 H      -15.820208085    17.900567600   -10.141248257
 H      -14.409149415    16.890146969    -9.742224541
 H       -3.439162140    12.896707810     2.145211235
 H       -2.037329911    13.449966487     1.199619001
 H       -3.513266586    14.447175414     1.262860410
 H       -3.596394111    12.863938023    -2.751336178
 H       -3.724816450    14.421945527    -1.895691205
 H       -2.182265076    13.529770151    -1.896552893
 H       -0.284107337    -0.354259133    -2.450781886
 H       -0.278880204    -1.909293649    -1.578816076
 H       -1.733794257    -0.878933083    -1.561735230
 H       -0.295553753    -0.361964889     2.447204348
 H       -1.705893190    -0.972078590     1.546194380
 H       -0.197031336    -1.916523633     1.581214598

