139   

Si        0.000000000     0.000000000     0.000000000
 C        1.869239848     0.000000000     0.000000000
 C       -0.643791268     1.730392107     0.000000000
 C        0.083176397     2.766202225    -0.596436177
 C       -0.407912601     4.071514974    -0.593514838
 C       -1.638450285     4.370263474    -0.002144696
 C       -2.367722880     3.330815307     0.590085863
 C       -1.878734464     2.026986888     0.590608435
 C       -2.193627536     5.719353596     0.026030768
 C       -1.600803531     6.804405928    -0.500382075
 C       -2.161887010     8.151271492    -0.468649256
 C       -3.394202611     8.438252938     0.125972560
 C       -3.894990994     9.739230585     0.134869892
 C       -3.172833604    10.781425838    -0.455700392
 C       -1.939116831    10.498128661    -1.053877668
 C       -1.441173356     9.197475278    -1.059204193
Si       -3.834238795    12.502534470    -0.444517850
 C       -2.407278392    13.644908675    -0.588672317
 C       -2.228148234    14.528666217    -1.578416218
 C       -1.079931699    15.434694656    -1.677096417
 C       -1.013475734    16.314045901    -2.768058419
 C        0.050389944    17.192069244    -2.910088112
 C        1.091284381    17.187445422    -1.967287411
 C        1.048190021    16.294056526    -0.891874608
 C       -0.023709735    15.416165598    -0.761941610
 N        2.149817017    18.129275599    -2.194035475
 C        1.808518170    19.477337358    -1.683765873
 C        3.476154261    17.664114256    -1.749731144
 C        1.806547349    19.607123184    -0.148297378
 C        0.622307265    20.422833429     0.402471281
 N       -0.653545785    19.693446509     0.539744593
 C       -0.635113369    18.484611934     1.258568687
 C        0.324469321    18.265457463     2.270365479
 C        0.340112506    17.073118283     2.977041415
 C       -0.625853785    16.083213753     2.754008629
 C       -1.604955648    16.321484533     1.784886217
 C       -1.627058924    17.503691404     1.058736105
 C       -1.471965832    19.709987126    -0.685606902
 C       -0.560853347    14.843924210     3.528826881
 C       -1.426410847    13.829282141     3.403239025
Si       -1.357582115    12.272370321     4.366025483
 C        0.077501381    12.323158675     5.523487441
 C        1.169377181    11.460826575     5.377400066
 C        2.240750063    11.520524686     6.266334454
 C        2.250512429    12.447173774     7.316388468
 C        1.159874132    13.310894746     7.457580569
 C        0.085464499    13.251235280     6.572190984
 C        3.394993139    12.471415104     8.221506137
 C        3.525816446    13.306112626     9.266564628
 C        4.669879861    13.331011330    10.172106314
 C        5.760905976    12.468689439    10.032795140
 C        6.833797632    12.527174239    10.921770170
 C        6.842432510    13.456071198    11.967870503
 C        5.750109069    14.321193790    12.109538950
 C        4.676890403    14.255993213    11.224500630
Si        8.261610417    13.535683160    13.146289432
 C        9.832994537    12.984573930    12.296278181
 C        8.486879157    15.287979677    13.758009002
 C        7.892721481    12.404378632    14.586961465
 C       -2.939245506    12.086148071     5.343933495
 C       -1.201687729    10.851878114     3.162919648
 C       -5.014879475    12.695791481    -1.877894194
 C       -4.726966049    12.864603857     1.155377399
 C       -0.630166672    -0.857451398    -1.536079426
 C       -0.601994996    -0.904798047     1.521435733
 H        1.051087686     2.594368805    -1.075428696
 H        0.179184738     4.860280241    -1.060694809
 H       -3.328727323     3.541464165     1.056038626
 H       -2.492239165     1.258592819     1.069211765
 H       -3.165297551     5.802103308     0.522636890
 H       -0.630183855     6.723613681    -0.998253453
 H       -3.974518799     7.643165427     0.590495992
 H       -4.862128053     9.903030730     0.618025603
 H       -1.331353474    11.276833369    -1.527580484
 H       -0.479929119     8.994695239    -1.528210870
 H       -1.673011403    13.546518645     0.229977969
 H       -2.941157015    14.647596412    -2.404898808
 H       -1.809818688    16.315500405    -3.511539557
 H        0.102335208    17.872336180    -3.758402969
 H        1.845954888    16.276596579    -0.153336322
 H       -0.040115401    14.723793707     0.083438493
 H        4.238626535    18.350734327    -2.156303730
 H        3.669528308    16.665142537    -2.178684527
 H        3.607598769    17.606235497    -0.658888764
 H       -1.353997983    20.668415353    -1.215138066
 H       -2.538331268    19.629164144    -0.404659300
 H       -1.227465445    18.890238980    -1.385102048
 H        1.060516462    19.028438252     2.504065293
 H        1.110693920    16.914444061     3.733090153
 H       -2.376399225    15.572925803     1.592890836
 H       -2.407353131    17.645126485     0.317049191
 H        0.282831172    14.819884474     4.233809446
 H       -2.264721446    13.880231581     2.691845727
 H        1.218999351    10.719570593     4.574568493
 H        3.079010024    10.838139000     6.139032572
 H        1.142416303    14.040212091     8.265446445
 H       -0.739401497    13.952560672     6.733057774
 H        4.174994673    11.739425912     7.992094777
 H        2.744936639    14.037184220     9.496346916
 H        5.781007751    11.739640668     9.224643824
 H        7.657174845    11.825493720    10.761941888
 H        5.701245151    15.067409097    12.907395760
 H        3.835865389    14.935021552    11.353010016
 H        2.540167351    20.187623613    -2.129158542
 H        0.816564800    19.754123350    -2.103736667
 H        1.798122238    18.595330517     0.309427972
 H        2.753097450    20.067788613     0.188443654
 H        0.881634319    20.814003862     1.416568694
 H        0.450477526    21.324426076    -0.225912571
 H        2.267542050    -1.028231101     0.065530782
 H        2.269680780     0.566432692     0.860347784
 H        2.279469331     0.454543584    -0.918722470
 H       10.706922419    13.095073952    12.962714244
 H       10.029000984    13.585210629    11.389620328
 H        9.783617930    11.924906898    11.990531140
 H        8.627651961    15.990013444    12.916247793
 H        7.614602559    15.634532222    14.339252466
 H        9.373340916    15.371871784    14.411622098
 H        7.761699805    11.359026219    14.253915231
 H        8.709395712    12.418788194    15.329877539
 H        6.963504218    12.702698086    15.105007877
 H       -3.093080811    12.935494099     6.032813267
 H       -3.820683269    12.031056809     4.681585753
 H       -2.921701888    11.164652478     5.953422789
 H       -0.328708761    10.974689459     2.496232928
 H       -1.092259728     9.885582755     3.686126697
 H       -2.092931289    10.769063952     2.513166015
 H       -4.513347058    12.501308551    -2.843411534
 H       -5.858111843    11.986186715    -1.801206736
 H       -5.440336618    13.713976766    -1.919027961
 H       -4.133821321    12.556643079     2.034516853
 H       -4.940279045    13.944376145     1.259249754
 H       -5.692219830    12.331167748     1.206982123
 H       -0.286694069    -0.344781617    -2.452610642
 H       -0.279201139    -1.903114929    -1.586320448
 H       -1.734598836    -0.873567843    -1.563272667
 H       -0.313551207    -0.370187713     2.444680963
 H       -1.700690532    -1.012142001     1.527281146
 H       -0.171299863    -1.920404969     1.578184323

