139   

Si        0.000000000     0.000000000     0.000000000
 C        1.869621585     0.000000000     0.000000000
 C       -0.614729665     1.741179092     0.000000000
 C        0.044091689     2.719839849    -0.753132859
 C       -0.412396289     4.036896132    -0.759509498
 C       -1.543603565     4.404620876    -0.024993188
 C       -2.205185783     3.422951049     0.723391518
 C       -1.747313781     2.107332381     0.736911420
 C       -2.055791369     5.770714462    -0.003216492
 C       -1.507658764     6.799352394    -0.671799866
 C       -2.013590325     8.167153716    -0.655054838
 C       -3.143093955     8.548944215     0.074567545
 C       -3.589059773     9.871340236     0.059089009
 C       -2.909887043    10.838286428    -0.686292182
 C       -1.777536299    10.458273529    -1.419905217
 C       -1.337351564     9.138457083    -1.405541447
Si       -3.453756501    12.603400737    -0.744485155
 C       -1.891567848    13.561416746    -0.675794814
 C       -1.450204839    14.419666338    -1.604150871
 C       -0.190037747    15.159260276    -1.495178770
 C        0.175868487    16.034153132    -2.528337506
 C        1.358215771    16.754554878    -2.468807305
 C        2.250309807    16.565289583    -1.393990506
 C        1.890394635    15.685903440    -0.361073039
 C        0.673039231    15.016829448    -0.404797657
 N        3.447065505    17.326477493    -1.378717722
 C        4.283282004    17.190882615    -2.591074088
 C        4.243495459    17.250849692    -0.140992747
 C        4.788204490    15.760792855    -2.866529087
 C        4.027448752    15.109173572    -4.038874642
 N        4.190271949    13.642685080    -4.124147039
 C        3.579062700    12.937844354    -3.049458369
 C        2.186050307    13.075797253    -2.898539752
 C        1.530733557    12.416502019    -1.873328889
 C        2.217130251    11.543939429    -1.015598705
 C        3.592580611    11.385506982    -1.190955128
 C        4.273286116    12.074224869    -2.191560150
 C        5.569950858    13.244510059    -4.451307447
 C        1.463377752    10.878059416     0.049370824
 C        2.000146484    10.025354078     0.930630258
Si        1.082870562     9.177927439     2.272468757
 C        1.857386462     9.690989274     3.868601379
 C        2.452396730    10.952865132     3.979298324
 C        3.040996721    11.354391881     5.177353509
 C        3.037922134    10.511066500     6.292271834
 C        2.436080006     9.250911384     6.179916909
 C        1.851873113     8.844109532     4.982632679
 C        3.641699366    10.889387567     7.565946441
 C        4.248853808    12.064196235     7.805716969
 C        4.852633403    12.442655500     9.079217392
 C        4.855251565    11.598520885    10.193133565
 C        5.444183951    12.001173607    11.391416187
 C        6.037873873    13.262847504    11.504839682
 C        6.036123898    14.110734467    10.390010762
 C        5.453779706    13.703231861     9.192457293
Si        6.818481296    13.799308911    13.089586795
 C        5.984225925    12.956244996    14.534841186
 C        8.626433755    13.329099792    13.041565284
 C        6.650037141    15.650536598    13.290192440
 C       -0.693794705     9.741953341     2.348555965
 C        1.164549647     7.336313307     1.998616924
 C       -4.407552367    12.904219573    -2.317406671
 C       -4.492127337    13.041816354     0.741655371
 C       -0.636113335    -0.847825985    -1.538636587
 C       -0.609228773    -0.907309368     1.516407041
 H        0.930996369     2.492286525    -1.351314091
 H        0.122428451     4.780154099    -1.348855961
 H       -3.088054631     3.687367976     1.302546437
 H       -2.303113088     1.385994801     1.342145100
 H       -2.947545088     5.916781356     0.612857510
 H       -0.615231494     6.651265067    -1.288570840
 H       -3.687288982     7.812720012     0.662776941
 H       -4.477603924    10.111767324     0.647984502
 H       -1.209743546    11.172348386    -2.027496157
 H       -0.451745675     8.862822839    -1.977859553
 H       -1.311919048    13.371160818     0.243998491
 H       -2.004318485    14.636846288    -2.525890094
 H       -0.486570377    16.167136615    -3.383711234
 H        1.599704329    17.468599336    -3.252028218
 H        2.557619388    15.506913867     0.477222687
 H        0.409600544    14.350273121     0.419219697
 H        5.050751664    18.002078539    -0.188278692
 H        4.697114525    16.264493554     0.045547373
 H        3.605664239    17.520036763     0.719862091
 H        5.871447628    13.745376075    -5.387452659
 H        5.595963463    12.156939985    -4.643273886
 H        6.310615822    13.485007433    -3.673586620
 H        1.627427288    13.716503948    -3.578822021
 H        0.455113738    12.564397420    -1.749131842
 H        4.153067665    10.718646203    -0.535138044
 H        5.346011309    11.940931538    -2.287906920
 H        0.396222614    11.144748033     0.056121774
 H        3.070773049     9.768664918     0.896460200
 H        2.483920963    11.655222152     3.139067457
 H        3.504232849    12.337333773     5.237941066
 H        2.424122616     8.579209611     7.036015824
 H        1.400709894     7.848606636     4.951384072
 H        3.569284848    10.129496425     8.349701617
 H        4.320955734    12.823789714     7.021892039
 H        4.395388575    10.613670909    10.132991462
 H        5.416021450    11.295880847    12.226617738
 H        6.484358280    15.107666224    10.419291926
 H        5.464507774    14.375571645     8.336603780
 H        3.698976592    17.577589612    -3.455853997
 H        5.146106679    17.886411255    -2.484009419
 H        5.871102508    15.772554929    -3.078042612
 H        4.671643531    15.133435960    -1.960031448
 H        2.937369903    15.330208140    -3.952773734
 H        4.358544730    15.545229158    -5.006687627
 H        2.269675255    -1.028052213     0.054639485
 H        2.268649838     0.558429836     0.866309347
 H        2.279306347     0.466067373    -0.913109661
 H        6.395255557    13.312908589    15.496049652
 H        6.119666755    11.861008682    14.504500147
 H        4.897831232    13.158630228    14.542807866
 H        8.754833744    12.237545604    12.928231440
 H        9.144417507    13.810603923    12.192733077
 H        9.146613101    13.632664854    13.966898680
 H        5.590926563    15.962644521    13.243361577
 H        7.051913570    15.984757874    14.263215245
 H        7.194418014    16.199484587    12.502160555
 H       -0.767212864    10.814991638     2.600166785
 H       -1.205257218     9.591860910     1.378055638
 H       -1.261654827     9.181701613     3.111373745
 H        2.205064279     6.970713975     1.948989011
 H        0.651390495     6.780646097     2.803425944
 H        0.668613938     7.058555428     1.048024643
 H       -3.808960611    12.649909554    -3.211218742
 H       -5.325055243    12.289161853    -2.353625990
 H       -4.714534411    13.961344471    -2.408733544
 H       -3.973122882    12.799754448     1.687027107
 H       -4.724159052    14.122555368     0.761367711
 H       -5.453798372    12.499247410     0.739916909
 H       -0.288178455    -0.336333425    -2.454029279
 H       -0.294540234    -1.896539842    -1.590947227
 H       -1.740798094    -0.854282769    -1.565961226
 H       -0.312520115    -0.384042945     2.443302224
 H       -1.709255998    -1.002067587     1.522261018
 H       -0.190743729    -1.928615761     1.564669386

