139   

Si        0.000000000     0.000000000     0.000000000
 C        1.869148843     0.000000000     0.000000000
 C       -0.658229470     1.724452477     0.000000000
 C        0.188120390     2.833510199     0.086509927
 C       -0.334238195     4.127099154     0.084561860
 C       -1.712053849     4.340922990    -0.003163844
 C       -2.559361734     3.227685235    -0.088796902
 C       -2.041277161     1.935709473    -0.086651203
 C       -2.303787690     5.674810159    -0.008766452
 C       -1.606901817     6.821111825     0.067997623
 C       -2.199020436     8.154956371     0.062367873
 C       -3.578138401     8.366644196    -0.025501126
 C       -4.101942434     9.658696793    -0.027586690
 C       -3.254059723    10.768672157     0.050549088
 C       -1.872322595    10.560645499     0.138140261
 C       -1.352937632     9.268344466     0.147141905
Si       -3.944786677    12.480105030     0.047977230
 C       -2.616818519    13.639190131    -0.449049456
 C       -2.149927409    14.651723194     0.293634566
 C       -1.085762209    15.561021445    -0.134275855
 C       -0.679687727    16.586889326     0.731883181
 C        0.322264789    17.473382882     0.375017216
 C        0.996045543    17.331710746    -0.859239492
 C        0.590088183    16.300427340    -1.728965120
 C       -0.447569385    15.449569742    -1.372741689
 N        2.006594584    18.237047030    -1.204024516
 C        2.860864792    18.762799363    -0.127419561
 C        2.691799301    18.038972818    -2.487323972
 C        3.504123497    17.703052780     0.786093780
 C        4.718308053    16.983623562     0.172503400
 N        5.918601473    17.810486766    -0.062693421
 C        5.953314427    18.485480814    -1.308168569
 C        5.949576683    17.692374883    -2.473888743
 C        5.982372360    18.290083433    -3.722750594
 C        6.052396409    19.685736570    -3.854056212
 C        6.085896808    20.464860178    -2.695177124
 C        6.051042775    19.879232470    -1.434168058
 C        6.338669780    18.591813164     1.110051816
 C        6.084545286    20.265966923    -5.199056332
 C        6.150777223    21.580190703    -5.447382227
Si        6.193056895    22.348207257    -7.111303556
 C        7.760195435    23.308900198    -7.265349149
 C        8.851630957    23.024372436    -6.438282173
 C       10.036138234    23.750998397    -6.555201148
 C       10.158479620    24.769555013    -7.504414814
 C        9.064796732    25.048495357    -8.335012932
 C        7.879262122    24.327198226    -8.219147667
 C       11.378026878    25.555527724    -7.662388709
 C       12.493883994    25.389567419    -6.932195720
 C       13.714002347    26.174702073    -7.089051609
 C       13.837464675    27.195672794    -8.035414974
 C       15.022912483    27.921060135    -8.150815225
 C       16.116432874    27.634544896    -7.326680752
 C       15.995515189    26.610870227    -6.378383878
 C       14.807951320    25.893189701    -6.260087625
Si       17.687814641    28.592685375    -7.476336240
 C       17.887270257    29.231775193    -9.221946811
 C       17.616369145    30.027675093    -6.281711786
 C       19.144667974    27.495955770    -7.064158476
 C        6.144847684    21.065832497    -8.466689999
 C        4.719271789    23.486679782    -7.255796100
 C       -5.326713719    12.613573552    -1.202518087
 C       -4.592413826    12.861358900     1.757289804
 C       -0.612963775    -0.878954935    -1.531601296
 C       -0.620335154    -0.873950114     1.531156288
 H        1.274314818     2.729936087     0.157230801
 H        0.346725541     4.973686128     0.153059178
 H       -3.636048070     3.372300273    -0.157580136
 H       -2.751446488     1.106837043    -0.155061122
 H       -3.395197813     5.690394810    -0.082291291
 H       -0.515441601     6.805678519     0.141564972
 H       -4.257179534     7.518716726    -0.092489373
 H       -5.188296692     9.761695860    -0.096392658
 H       -1.163770077    11.393359825     0.202470426
 H       -0.276275376     9.125436099     0.218507267
 H       -2.212390007    13.438352158    -1.454333152
 H       -2.535169087    14.878955711     1.296551895
 H       -1.170108543    16.700055612     1.699305552
 H        0.584850006    18.283073143     1.049165733
 H        1.078306037    16.159146759    -2.687707495
 H       -0.753405811    14.669468884    -2.072069734
 H        3.418570263    18.854917457    -2.659408068
 H        1.952617824    18.095451355    -3.307568344
 H        3.234586619    17.082363711    -2.557173690
 H        6.430137378    17.912901773     1.976177797
 H        5.656705352    19.412955550     1.380484054
 H        7.342389196    19.014006103     0.921723223
 H        5.933915105    16.607756055    -2.384538636
 H        5.971751373    17.663838438    -4.615439961
 H        6.145277880    21.551902337    -2.770938387
 H        6.083903641    20.513985698    -0.553607165
 H        6.051552794    19.511818781    -5.996307963
 H        6.181512282    22.313875266    -4.624924945
 H        8.815683681    22.235621678    -5.679372794
 H       10.870714651    23.514135245    -5.897388205
 H        9.139856728    25.837616171    -9.080865165
 H        7.059227236    24.589968674    -8.892830431
 H       11.331190234    26.320734377    -8.442764196
 H       12.540599114    24.623420414    -6.152421039
 H       13.003502818    27.434537617    -8.693003436
 H       15.057818991    28.709022659    -8.908281685
 H       16.816445578    26.341762803    -5.707894711
 H       14.732957924    25.102383309    -5.515807516
 H        3.648712040    19.408644203    -0.578946475
 H        2.231033510    19.448958419     0.489140726
 H        3.789558587    18.177866936     1.743445736
 H        2.746785990    16.937552885     1.058839334
 H        5.034595661    16.157967687     0.855148700
 H        4.418012839    16.494949784    -0.781139430
 H        2.266725925    -1.030553752    -0.020873313
 H        2.275513077     0.491675078     0.901704020
 H        2.273272849     0.527424510    -0.882527990
 H       18.855562390    29.747842576    -9.349612071
 H       17.093091192    29.950787900    -9.488615635
 H       17.851838104    28.406724444    -9.956263434
 H       16.759542055    30.690225268    -6.500172551
 H       17.503896634    29.678130903    -5.239671733
 H       18.533791341    30.640011701    -6.331942272
 H       19.163414918    26.597866339    -7.707902227
 H       20.100355342    28.029868304    -7.211602750
 H       19.116633352    27.153468765    -6.015050884
 H        7.004274804    20.373960014    -8.397055918
 H        5.221204185    20.462209999    -8.419744235
 H        6.184781118    21.536564829    -9.465684349
 H        4.764163408    24.301228562    -6.510167030
 H        4.661909664    23.952845749    -8.254993255
 H        3.774070033    22.938249954    -7.090114883
 H       -4.984118808    12.325676015    -2.212923607
 H       -6.178151855    11.962012170    -0.940592537
 H       -5.706713089    13.649612739    -1.265234118
 H       -3.790398803    12.794883900     2.514952470
 H       -5.021099836    13.877977163     1.808323758
 H       -5.383679578    12.150131998     2.054605441
 H       -0.270851204    -0.367177471    -2.449561193
 H       -0.244100706    -1.918891363    -1.572922422
 H       -1.716075666    -0.914689362    -1.565977070
 H       -0.274437692    -0.365649401     2.449575161
 H       -1.723993527    -0.898137453     1.564300415
 H       -0.261731947    -1.917409939     1.572408935

