139   

Si        0.000000000     0.000000000     0.000000000
 C        1.869105425     0.000000000     0.000000000
 C       -0.659663785     1.723865995     0.000000000
 C        0.184055914     2.833894667    -0.098610649
 C       -0.340467805     4.126727884    -0.096293941
 C       -1.717743998     4.338568470     0.003961688
 C       -2.562439178     3.224210921     0.101473169
 C       -2.042173033     1.933139293     0.098663325
 C       -2.312284435     5.671179070     0.010516824
 C       -1.619578168     6.819463076    -0.077034539
 C       -2.217483506     8.150802938    -0.070181552
 C       -1.376997384     9.267996420    -0.168242845
 C       -1.902473556    10.557624363    -0.165757634
 C       -3.285020072    10.759286437    -0.071401315
 C       -4.126274417     9.646345131     0.026433420
 C       -3.596187058     8.356569211     0.029917851
Si       -3.985684270    12.466591187    -0.067749898
 C       -5.765793508    12.362449081    -0.485166937
 C       -6.772978544    12.772428292     0.297290710
 C       -8.187463191    12.675394158    -0.065417541
 C       -9.153996207    13.139422173     0.838820280
 C      -10.505227983    13.070702239     0.544414330
 C      -10.940232564    12.571736655    -0.704408869
 C       -9.969760702    12.106141251    -1.614065929
 C       -8.622331527    12.141203448    -1.281720525
 N      -12.308557898    12.508419475    -0.987359584
 C      -13.184714534    13.548678283    -0.427344146
 C      -12.713715585    12.008099898    -2.306498106
 C      -12.751106372    15.001338561    -0.699097430
 C      -13.045758600    15.504526931    -2.123318893
 N      -14.469523034    15.618779785    -2.499650411
 C      -15.041373404    14.437506166    -3.036721498
 C      -14.503838450    13.956590180    -4.248166460
 C      -15.014835480    12.807852264    -4.828572187
 C      -16.089445905    12.120064315    -4.243564563
 C      -16.637114731    12.618323478    -3.059167823
 C      -16.134760710    13.771166110    -2.464632050
 C      -15.287085305    16.342733149    -1.514872096
 C      -16.591388822    10.909905865    -4.899133698
 C      -17.608647860    10.173673506    -4.434323444
Si      -18.268748787     8.655041715    -5.220348009
 C      -18.087018857     7.273188215    -4.011895846
 C      -17.105250669     7.335030055    -3.016966952
 C      -16.961357487     6.294870470    -2.099807413
 C      -17.787468915     5.169051872    -2.161291269
 C      -18.766353268     5.108299123    -3.162102933
 C      -18.915429674     6.146818957    -4.078137419
 C      -17.672830288     4.057204770    -1.222978172
 C      -16.779557359     3.991838046    -0.221046778
 C      -16.664134361     2.880502694     0.717728454
 C      -17.490702258     1.755742114     0.660362682
 C      -17.344957072     0.715916668     1.579045531
 C      -16.367025512     0.779266620     2.575754060
 C      -15.535923403     1.906527662     2.635714177
 C      -15.684072588     2.942586965     1.717980653
Si      -16.148024022    -0.579205265     3.806462530
 C      -17.353334213    -1.970577964     3.482825680
 C      -14.402291455    -1.233221058     3.672596091
 C      -16.444894972     0.110063722     5.518061106
 C      -20.070830354     8.944468855    -5.615981781
 C      -17.335740208     8.215513513    -6.775826874
 C       -3.713255249    13.217347001     1.620115542
 C       -3.144043914    13.505491955    -1.373458557
 C       -0.620068372    -0.873578577    -1.531389003
 C       -0.612285075    -0.880215020     1.531251107
 H        1.269651450     2.731676255    -0.179006480
 H        0.338468757     4.974131864    -0.173816909
 H       -3.638756286     3.367269249     0.180074144
 H       -2.750308262     1.103318896     0.176510501
 H       -3.403225303     5.684211774     0.094660159
 H       -0.529039836     6.807694408    -0.161105703
 H       -0.300533112     9.129120389    -0.246714620
 H       -1.198703930    11.390649155    -0.243084225
 H       -5.214401941     9.746208508     0.104530623
 H       -4.271375799     7.506317830     0.109797068
 H       -5.959575539    11.921007042    -1.476076728
 H       -6.610540663    13.218078182     1.287769866
 H       -8.839564717    13.550034951     1.798995122
 H      -11.230376757    13.399110211     1.282666477
 H      -10.260961989    11.712566731    -2.582365937
 H       -7.892565669    11.758570034    -1.997558633
 H      -13.816562153    11.946586962    -2.367905282
 H      -12.331411669    10.979347229    -2.440676902
 H      -12.363182674    12.634224168    -3.143281488
 H      -14.810408057    17.316143024    -1.303449097
 H      -15.433182980    15.811258462    -0.561731608
 H      -16.277781210    16.555432398    -1.955757035
 H      -13.693389536    14.501732873    -4.728691407
 H      -14.585200320    12.443849753    -5.762466753
 H      -17.476540003    12.104147528    -2.588099842
 H      -16.588889573    14.136952017    -1.548407576
 H      -16.048718037    10.659373383    -5.820084519
 H      -18.137065063    10.452352190    -3.507659761
 H      -16.428065520     8.190666657    -2.920776749
 H      -16.193060899     6.367777444    -1.331633714
 H      -19.419776309     4.240305582    -3.226990172
 H      -19.697362910     6.045207924    -4.835385943
 H      -18.385733606     3.244062754    -1.387797824
 H      -16.066159436     4.805153452    -0.056422695
 H      -18.259860762     1.681211279    -0.106301516
 H      -18.021401118    -0.137768121     1.483648726
 H      -14.753831991     2.010778806     3.393225547
 H      -15.029321884     3.810214214     1.779942606
 H      -14.221129127    13.382561633    -0.800672813
 H      -13.235155995    13.379852452     0.675900104
 H      -13.233263289    15.664794597     0.043151371
 H      -11.660623875    15.104590323    -0.513447637
 H      -12.607239272    16.524661651    -2.245395894
 H      -12.523466566    14.855365560    -2.861242626
 H        2.266630002    -1.030515782     0.023195413
 H        2.273493492     0.529608722     0.881110036
 H        2.275406797     0.489486917    -0.902904912
 H      -17.215118656    -2.793276513     4.207191100
 H      -17.219241950    -2.395680231     2.472144610
 H      -18.400163571    -1.628744709     3.568388354
 H      -14.201004047    -1.629985118     2.660844090
 H      -13.656354936    -0.443391986     3.871118160
 H      -14.222534426    -2.050783439     4.392682492
 H      -17.469132471     0.514033322     5.614271473
 H      -16.319203616    -0.667394778     6.292027316
 H      -15.744033355     0.930908807     5.752126753
 H      -20.660870760     9.127600565    -4.699638495
 H      -20.198179442     9.824092543    -6.273172937
 H      -20.518276403     8.077250568    -6.132404710
 H      -16.263395328     8.045856733    -6.568308338
 H      -17.730638444     7.289320644    -7.231366086
 H      -17.410452938     9.016630963    -7.532528229
 H       -4.204664469    12.619320530     2.409337999
 H       -2.638024325    13.267176433     1.868454743
 H       -4.116572194    14.243931305     1.674865675
 H       -3.227507622    13.040480543    -2.372385491
 H       -3.599465279    14.510292219    -1.436631705
 H       -2.069999819    13.639340489    -1.157262447
 H       -0.273610937    -0.365475652    -2.449694639
 H       -0.262086046    -1.917239079    -1.572467292
 H       -1.723776578    -0.897065739    -1.565036690
 H       -0.271643890    -0.367469670     2.449240956
 H       -1.715345839    -0.918090761     1.564937642
 H       -0.241486695    -1.919413966     1.572965010

