139   

Si        0.000000000     0.000000000     0.000000000
 C        1.869556825     0.000000000     0.000000000
 C       -0.621346485     1.738729360     0.000000000
 C        0.028110781     2.718810602    -0.759228525
 C       -0.434199280     4.034044032    -0.765074343
 C       -1.559647574     4.399068853    -0.020560858
 C       -2.211225011     3.415783624     0.734907916
 C       -1.749348934     2.101666981     0.745568378
 C       -2.079411247     5.762331160     0.003738332
 C       -1.548105086     6.796444102    -0.670415866
 C       -2.070237739     8.158856866    -0.644116801
 C       -3.195977920     8.518077193     0.102167604
 C       -3.661700264     9.832271622     0.099153012
 C       -3.013190076    10.813151166    -0.657878214
 C       -1.886042280    10.457317350    -1.408469666
 C       -1.420530577     9.144992464    -1.398841545
Si       -3.625625619    12.552383640    -0.664831391
 C       -2.151986507    13.639275071    -0.545297526
 C       -1.782684243    14.558623555    -1.445972689
 C       -0.595348840    15.409263149    -1.313576129
 C       -0.315477475    16.336858827    -2.328249320
 C        0.794568969    17.164222244    -2.250639213
 C        1.668925851    17.063710970    -1.155255426
 C        1.418481308    16.116389707    -0.157127269
 C        0.308772973    15.282232402    -0.254811367
 N        2.790270178    17.956848080    -1.155713352
 C        2.416766597    19.317243433    -0.703554216
 C        3.986244840    17.433964077    -0.471449766
 C        2.137409159    19.443646341     0.806973611
 C        0.974058221    20.397506768     1.137324338
 N       -0.379663117    19.804038831     1.064944088
 C       -0.537417034    18.567188124     1.729754068
 C        0.060373643    18.378067118     2.994026008
 C       -0.080746951    17.173224766     3.665094266
 C       -0.824741735    16.120626839     3.115703230
 C       -1.451297951    16.328865660     1.883648785
 C       -1.346332916    17.540324179     1.214076015
 C       -0.975303573    19.894541766    -0.280242924
 C       -0.951665896    14.861904907     3.854301770
 C       -1.644076999    13.809979004     3.398771470
Si       -1.874193524    12.193251390     4.224687572
 C       -3.692152565    11.986221923     4.467247604
 C       -4.462006524    13.056623832     4.939992046
 C       -5.833902254    12.908927891     5.125763709
 C       -6.470024089    11.693988791     4.836591644
 C       -5.699156221    10.629735749     4.361192376
 C       -4.324151645    10.773116321     4.177935484
 C       -7.910009634    11.588300267     5.047735060
 C       -8.637504070    10.482878718     4.814283641
 C      -10.077472929    10.376321836     5.025143471
 C      -10.850261252    11.439600075     5.500554749
 C      -12.224269749    11.294208277     5.687622282
 C      -12.858764283    10.081922843     5.395182791
 C      -12.086713561     9.015461536     4.918137990
 C      -10.713151743     9.161208414     4.738956965
Si      -14.678504442     9.891868467     5.643763453
 C      -15.537913036    11.523387887     5.335644717
 C      -15.360439236     8.616621185     4.459012675
 C      -14.977416634     9.342187215     7.404391881
 C       -1.198666681    10.868071069     3.095489536
 C       -1.023274675    12.116280855     5.883057431
 C       -4.567484383    12.842419607    -2.250950050
 C       -4.743808514    12.891845025     0.789560758
 C       -0.635017842    -0.850145120    -1.537993087
 C       -0.606504976    -0.908952430     1.516708810
 H        0.911482584     2.493952873    -1.363513007
 H        0.091401087     4.778657410    -1.360476624
 H       -3.089587769     3.678002180     1.321804633
 H       -2.298183672     1.379020489     1.355643153
 H       -2.966425804     5.901699064     0.628952946
 H       -0.662236118     6.657393170    -1.296972812
 H       -3.719244100     7.770828293     0.695726042
 H       -4.543717199    10.055658167     0.707603624
 H       -1.337333336    11.186892616    -2.012753627
 H       -0.541402644     8.884826755    -1.985472614
 H       -1.545758342    13.456760097     0.359339387
 H       -2.355273080    14.757141610    -2.360976762
 H       -0.981731007    16.416917270    -3.186570525
 H        1.010715977    17.880086402    -3.041516429
 H        2.085330709    16.019967953     0.695753640
 H        0.142109171    14.534866416     0.524627313
 H        4.831653506    18.113026024    -0.676337395
 H        4.242213829    16.449369373    -0.901394323
 H        3.886610252    17.324116071     0.618843526
 H       -0.792945341    20.895306497    -0.703978295
 H       -2.071492321    19.779045986    -0.194148527
 H       -0.594836424    19.136970851    -0.987436335
 H        0.631991819    19.181608448     3.449385930
 H        0.395116530    17.047905615     4.637607898
 H       -2.063413975    15.539852700     1.438136406
 H       -1.863689407    17.656589290     0.265629993
 H       -0.419976920    14.859132143     4.812684299
 H       -2.171343662    13.864084990     2.430180043
 H       -4.019499116    14.030985230     5.172368169
 H       -6.417163809    13.749726414     5.496743452
 H       -6.168978728     9.675895089     4.129334125
 H       -3.772816783     9.905904524     3.802395477
 H       -8.385323739    12.499114074     5.423942438
 H       -8.161924951     9.571862821     4.439239309
 H      -10.381562341    12.394844484     5.730997985
 H      -12.774537430    12.161133685     6.064067523
 H      -12.527105736     8.045266280     4.672279122
 H      -10.130316557     8.319546973     4.369403858
 H        3.246212940    19.997747286    -0.998898485
 H        1.530628703    19.638298461    -1.294333203
 H        1.922499314    18.440722637     1.232761190
 H        3.049946720    19.785904714     1.327784990
 H        1.098429799    20.786250815     2.176694713
 H        1.008523406    21.292848417     0.479645500
 H        2.269269874    -1.027098511     0.071841862
 H        2.268934958     0.572720366     0.856755983
 H        2.279169742     0.450703196    -0.920801030
 H      -16.634796733    11.417107359     5.410396745
 H      -15.310040390    11.910640358     4.325956063
 H      -15.230617561    12.292976270     6.065154439
 H      -15.137960268     8.885112602     3.410380201
 H      -14.935784356     7.614772287     4.645271663
 H      -16.457861384     8.531947009     4.552988788
 H      -14.583210421    10.078093299     8.128207966
 H      -16.054967888     9.215700181     7.609248074
 H      -14.481505745     8.377327127     7.614150559
 H       -1.773085807    10.797112963     2.152166159
 H       -0.148049445    11.073005584     2.819795817
 H       -1.225801675     9.872513653     3.571948201
 H       -1.401329296    12.895262508     6.569185658
 H       -1.188019344    11.139890542     6.373421383
 H        0.067642508    12.257405617     5.783588076
 H       -3.933420556    12.666421315    -3.138057138
 H       -5.434677549    12.162021163    -2.330046034
 H       -4.951575571    13.876065400    -2.310758508
 H       -4.350155652    12.467343804     1.731671310
 H       -4.879776077    13.976835534     0.952409960
 H       -5.747492380    12.455281328     0.637848472
 H       -0.287165114    -0.339292116    -2.453737621
 H       -0.292503747    -1.898575720    -1.589123540
 H       -1.739670157    -0.857632029    -1.565614622
 H       -0.310294523    -0.385019515     2.443448077
 H       -1.706320727    -1.006029687     1.523208631
 H       -0.185830882    -1.929308868     1.564733261

