139   

Si        0.000000000     0.000000000     0.000000000
 C        1.869072255     0.000000000     0.000000000
 C       -0.658616480     1.724568628     0.000000000
 C        0.182512352     2.831929169    -0.142069344
 C       -0.340272193     4.125464632    -0.138834589
 C       -1.713555883     4.340256772     0.001637715
 C       -2.555915371     3.228655107     0.141093869
 C       -2.037036024     1.937019556     0.139900742
 C       -2.306579440     5.673498914     0.010866396
 C       -1.616535186     6.820249029    -0.111737413
 C       -2.215387624     8.151097360    -0.101775452
 C       -1.381339408     9.268256172    -0.238816291
 C       -1.909307054    10.557976324    -0.234859563
 C       -3.286716808    10.756685171    -0.099409791
 C       -4.123658718     9.642298939     0.036513011
 C       -3.591746834     8.354578334     0.036779402
Si       -4.035290909    12.443908019    -0.088211597
 C       -5.607443671    12.295309721    -1.015102014
 C       -6.835140250    12.550232967    -0.546039464
 C       -8.053764503    12.408695028    -1.349247492
 C       -9.291085847    12.702908151    -0.756593423
 C      -10.469345978    12.583171873    -1.478166670
 C      -10.427819187    12.167535968    -2.818109930
 C       -9.198927830    11.881203403    -3.420905615
 C       -8.023462157    12.010185033    -2.687978962
 N      -11.695263573    12.071323810    -3.488326520
 C      -12.315114458    10.743413323    -3.280386707
 C      -11.655758219    12.477867658    -4.904605446
 C      -11.658992685     9.587716048    -4.062730268
 C      -11.881719926     8.222948015    -3.383002604
 N      -10.736115411     7.736971519    -2.587290251
 C      -10.427214449     8.482004665    -1.425289082
 C      -11.471533062     8.787127115    -0.527914882
 C      -11.213077758     9.514356080     0.621820288
 C       -9.907685316     9.910630442     0.948842994
 C       -8.870140041     9.573385337     0.076819324
 C       -9.116580594     8.861135041    -1.091228753
 C       -9.594467780     7.336014738    -3.427123201
 C       -9.697293091    10.677328086     2.176944599
 C       -8.506225305    11.116567609     2.605221105
Si       -8.259840621    12.076042095     4.146462114
 C       -9.881815934    12.328942055     4.986515662
 C      -10.893289743    13.035314818     4.322817849
 C      -12.129092107    13.242350615     4.931808319
 C      -12.384988276    12.747785155     6.214603486
 C      -11.372704453    12.040588808     6.875170224
 C      -10.135130667    11.832595089     6.269023263
 C      -13.663841096    12.940759632     6.890594747
 C      -14.712796228    13.598459447     6.368083451
 C      -15.992160075    13.792206586     7.042844899
 C      -16.250725496    13.300013632     8.325062968
 C      -17.488633414    13.508629815     8.932356385
 C      -18.494699978    14.222193747     8.272439228
 C      -18.237809110    14.716603397     6.987375378
 C      -17.003278863    14.500541152     6.380254312
Si      -20.135387079    14.500982757     9.072461761
 C      -19.950153821    14.515081430    10.932680375
 C      -20.842054094    16.142183718     8.522802651
 C      -21.280091022    13.115335004     8.561793734
 C       -7.056924767    11.149137166     5.231898615
 C       -7.552372226    13.749066067     3.702905584
 C       -4.298994095    12.965286880     1.683081760
 C       -2.945937819    13.679480731    -0.965070724
 C       -0.622767257    -0.872553237    -1.530656423
 C       -0.609973868    -0.880973723     1.531660508
 H        1.264757971     2.727090513    -0.257112769
 H        0.336729496     4.971009893    -0.247216570
 H       -3.629065278     3.374179735     0.252443052
 H       -2.742947770     1.109315248     0.253202455
 H       -3.394514882     5.688017929     0.129180311
 H       -0.529236188     6.807293455    -0.229429303
 H       -0.307324471     9.130965056    -0.349099109
 H       -1.210837941    11.391571623    -0.344223800
 H       -5.210143294     9.739489393     0.141278552
 H       -4.262039438     7.502958398     0.144710963
 H       -5.457820411    11.957211479    -2.055075007
 H       -7.025805678    12.890299153     0.480524207
 H       -9.332218863    13.014323683     0.288366735
 H      -11.431159831    12.807158737    -1.018172540
 H       -9.154137292    11.566699540    -4.459208096
 H       -7.072241752    11.786544802    -3.171729839
 H      -12.693490161    12.557236552    -5.271727216
 H      -11.102915421    11.798403611    -5.569092101
 H      -11.201919079    13.481931603    -4.976490983
 H       -9.950240121     6.672879443    -4.233721851
 H       -8.885937104     6.747151674    -2.816261208
 H       -9.052923116     8.179512915    -3.884360840
 H      -12.483026382     8.449149478    -0.737315763
 H      -12.037294030     9.765310945     1.290985359
 H       -7.846204361     9.878411713     0.302832242
 H       -8.284405791     8.635412578    -1.751082534
 H      -10.630294531    10.859388217     2.731560251
 H       -7.582621849    10.913083419     2.041314718
 H      -10.751794057    13.446640991     3.317840667
 H      -12.899380668    13.795057478     4.396884642
 H      -11.551258076    11.646333687     7.873930422
 H       -9.384517638    11.271222498     6.832215382
 H      -13.723823958    12.500961395     7.890526300
 H      -14.652556511    14.038490231     5.368221272
 H      -15.483218885    12.745510341     8.862269294
 H      -17.631355678    13.097966389     9.935814905
 H      -18.985170033    15.281507611     6.423387563
 H      -16.823781530    14.890967065     5.380148607
 H      -12.285874599    10.531729029    -2.185004656
 H      -13.388328512    10.834518070    -3.556242318
 H      -12.053348353     9.563338519    -5.093634030
 H      -10.572519108     9.777601034    -4.164794242
 H      -12.780623872     8.251140070    -2.727781147
 H      -12.102574494     7.447782638    -4.152479318
 H        2.266970424    -1.029624204     0.046214340
 H        2.272555299     0.548960560     0.869752214
 H        2.276207220     0.469560207    -0.912951442
 H      -20.909788912    14.749140668    11.427199994
 H      -19.216296900    15.275544168    11.255965064
 H      -19.610674691    13.537871961    11.318360473
 H      -20.146074609    16.971424203     8.745227039
 H      -21.044551412    16.158984244     7.437726045
 H      -21.793704266    16.360252939     9.039422303
 H      -20.887389404    12.132100339     8.877992826
 H      -22.282207883    13.234714105     9.009730979
 H      -21.405932717    13.081204110     7.464673532
 H       -7.436050060    10.141903305     5.484433771
 H       -6.081912521    11.013820197     4.729067718
 H       -6.869447695    11.685042242     6.178870493
 H       -8.217631987    14.300326077     3.014572643
 H       -7.420310348    14.373710543     4.604517521
 H       -6.566266463    13.657021008     3.214169160
 H       -4.887839038    12.213059692     2.239803966
 H       -3.335741107    13.080457063     2.212524240
 H       -4.828880956    13.932607100     1.744509795
 H       -2.707626603    13.351714002    -1.993032531
 H       -3.441236628    14.664937227    -1.040918757
 H       -1.990773673    13.830168630    -0.432253135
 H       -0.276428351    -0.365592060    -2.449579677
 H       -0.266971859    -1.917011543    -1.571786121
 H       -1.726609585    -0.893834368    -1.563046253
 H       -0.274462011    -0.364112253     2.449321197
 H       -1.712763289    -0.926774926     1.563533492
 H       -0.232075976    -1.917572635     1.576250619

