139   

Si        0.000000000     0.000000000     0.000000000
 C        1.869498796     0.000000000     0.000000000
 C       -0.609115200     1.742856606     0.000000000
 C       -0.029794372     2.683801500     0.859657435
 C       -0.477828890     4.003621898     0.872183244
 C       -1.518957537     4.413045969     0.033601417
 C       -2.099880701     3.469252419    -0.822692811
 C       -1.651581021     2.150199131    -0.840226701
 C       -2.019882530     5.783618289     0.013305966
 C       -1.547474797     6.781059706     0.780130801
 C       -2.046770025     8.152165566     0.761531510
 C       -1.459288130     9.093722240     1.617572054
 C       -1.901476517    10.413894590     1.635672193
 C       -2.949907390    10.821624120     0.801467664
 C       -3.538744567     9.884134286    -0.052902905
 C       -3.088738590     8.564246125    -0.073551885
Si       -3.534961906    12.571672317     0.826492790
 C       -5.194819726    12.644999638     0.056007641
 C       -5.514878851    13.360618533    -1.030308587
 C       -6.852201095    13.399656547    -1.624286064
 C       -7.064930692    14.188287421    -2.764723294
 C       -8.310545211    14.259970518    -3.365187564
 C       -9.388899290    13.495199554    -2.868251193
 C       -9.176031580    12.701829035    -1.725253008
 C       -7.931800490    12.678293334    -1.107990240
 N      -10.645520928    13.582506780    -3.492455989
 C      -10.651422557    13.727226355    -4.958799757
 C      -11.703521397    12.685264459    -3.000811613
 C       -9.915797334    12.588946605    -5.695199677
 C      -10.448701575    12.393864336    -7.126130247
 N      -11.454595220    11.316380183    -7.265507520
 C      -12.609689599    11.497826982    -6.458578835
 C      -13.399622904    12.639957116    -6.700739485
 C      -14.537943335    12.871616666    -5.946745798
 C      -14.945371597    11.964863858    -4.955594048
 C      -14.173076291    10.821988625    -4.738060270
 C      -13.023464187    10.579576794    -5.482910069
 C      -10.849182554     9.973607342    -7.221790913
 C      -16.157562890    12.258249901    -4.186700662
 C      -16.640356898    11.468047159    -3.219393376
Si      -18.150994008    11.796547510    -2.234143389
 C      -19.335055949    10.408779372    -2.505053742
 C      -19.223081511     9.588504451    -3.632300396
 C      -20.119094294     8.539561985    -3.835827071
 C      -21.149487952     8.293400630    -2.924294240
 C      -21.262091022     9.120453819    -1.798480272
 C      -20.367018412    10.166691743    -1.589997651
 C      -22.109897323     7.208147271    -3.095822206
 C      -22.113913863     6.345850141    -4.126544042
 C      -23.074689732     5.260746874    -4.297459930
 C      -24.103010157     5.013474366    -3.382712682
 C      -24.999396156     3.965654774    -3.584728843
 C      -24.886931928     3.138675649    -4.709121781
 C      -23.859049579     3.384218487    -5.626063406
 C      -22.964811956     4.433232411    -5.421843897
Si      -26.089803328     1.758903634    -4.948648548
 C      -27.803403316     2.484657960    -5.121063404
 C      -25.678153507     0.774842257    -6.483370042
 C      -26.017725171     0.633339040    -3.458253530
 C      -17.654591878    11.879414575    -0.435140135
 C      -18.974597473    13.391811401    -2.744285191
 C       -3.690735100    13.166823833     2.590931444
 C       -2.298384598    13.623706090    -0.096002980
 C       -0.610441524    -0.911446384    -1.513371265
 C       -0.637214201    -0.846292674     1.539393797
 H        0.785564557     2.423344759     1.540486269
 H       -0.007408320     4.717145974     1.546587028
 H       -2.911620889     3.766283735    -1.484227636
 H       -2.142287527     1.459668257    -1.531401888
 H       -2.837224897     5.961757118    -0.691634024
 H       -0.729949215     6.602081569     1.484913288
 H       -0.646838251     8.792501303     2.276039589
 H       -1.403813754    11.104351232     2.322060174
 H       -4.360465522    10.149238348    -0.726740288
 H       -3.561295246     7.853459007    -0.749034189
 H       -5.949792519    12.034473644     0.577263561
 H       -4.785317870    13.980431394    -1.568441162
 H       -6.239865267    14.767201470    -3.180765050
 H       -8.452967393    14.909623910    -4.223915703
 H       -9.979181008    12.102877201    -1.307657875
 H       -7.798523463    12.067418718    -0.213473131
 H      -12.645847698    12.881552243    -3.546164308
 H      -11.901380942    12.902358983    -1.935924924
 H      -11.466486710    11.615692909    -3.116926733
 H      -10.088599310     9.902207900    -8.019298211
 H      -11.621483884     9.217139042    -7.447473903
 H      -10.370629786     9.719706279    -6.263102994
 H      -13.115770363    13.331476209    -7.491442378
 H      -15.133097296    13.765081673    -6.138172860
 H      -14.472032047    10.098225262    -3.977892501
 H      -12.445595369     9.681366534    -5.285378796
 H      -16.641107982    13.198378647    -4.483002179
 H      -16.132254988    10.529218112    -2.943785269
 H      -18.439005188     9.735993697    -4.382531304
 H      -20.008890180     7.911930541    -4.718563720
 H      -22.057853129     8.945525132    -1.076823263
 H      -20.503053165    10.777442468    -0.693339446
 H      -22.860301196     7.132326757    -2.303318432
 H      -21.364148214     6.421929799    -4.919816023
 H      -24.211336141     5.642020156    -2.500472551
 H      -25.782567939     3.822158752    -2.834798064
 H      -23.722822791     2.771802322    -6.521510286
 H      -22.172325369     4.608134241    -6.147364254
 H      -11.712924381    13.789533216    -5.294343164
 H      -10.199702692    14.711604342    -5.216437633
 H       -8.830082036    12.798747487    -5.714393982
 H      -10.011421931    11.647288877    -5.121078095
 H      -10.901263573    13.335051888    -7.510907705
 H       -9.608294078    12.162568055    -7.818991542
 H        2.270203959    -1.028612507    -0.031055127
 H        2.278514948     0.488490612     0.901657449
 H        2.268180116     0.539104601    -0.878679839
 H      -28.565649108     1.694233116    -5.236518662
 H      -27.870754491     3.144690469    -6.005013879
 H      -28.078841301     3.088168289    -4.238054664
 H      -25.721456056     1.401854943    -7.391649668
 H      -24.665888636     0.336652732    -6.424259659
 H      -26.390073229    -0.058243606    -6.624183981
 H      -26.276566653     1.171826699    -2.529517391
 H      -26.719405764    -0.213217124    -3.559467695
 H      -25.004696481     0.212265967    -3.324040305
 H      -17.243313169    10.915043427    -0.085668806
 H      -16.879570465    12.650008602    -0.270048963
 H      -18.513606227    12.128402138     0.212272505
 H      -19.270018313    13.369693463    -3.809359222
 H      -19.891054419    13.576175655    -2.154971692
 H      -18.304729579    14.257781944    -2.597939081
 H       -4.359715855    12.512108248     3.178334910
 H       -2.712481994    13.187485071     3.101653173
 H       -4.109456385    14.188887919     2.630406574
 H       -2.193906974    13.293316998    -1.145618563
 H       -2.600620224    14.685995776    -0.105659764
 H       -1.297154694    13.565660710     0.367040461
 H       -0.301137805    -0.400380925    -2.442845607
 H       -0.204991938    -1.938465743    -1.550246811
 H       -1.711676060    -0.992143026    -1.524856720
 H       -0.290096767    -0.333725348     2.454369271
 H       -1.741978470    -0.852592442     1.565335492
 H       -0.296036334    -1.894973489     1.593309885

