139   

Si        0.000000000     0.000000000     0.000000000
 C        1.869828303     0.000000000     0.000000000
 C       -0.595210332     1.746566614     0.000000000
 C       -0.143123340     2.628943877    -0.988535357
 C       -0.578299611     3.952620945    -1.009438292
 C       -1.469399834     4.426590365    -0.041768789
 C       -1.921748163     3.541801205     0.944969584
 C       -1.494077667     2.215964947     0.964171227
 C       -1.950516692     5.803786448    -0.025923888
 C       -1.597012337     6.743153436    -0.919172280
 C       -2.074736276     8.121080523    -0.908157485
 C       -1.621490131     8.996277005    -1.904694639
 C       -2.049803366    10.319361244    -1.934431770
 C       -2.910525181    10.811864081    -0.943426687
 C       -3.351635021     9.944565379     0.058871445
 C       -2.941481729     8.611008600     0.071855994
Si       -3.449849411    12.573935603    -1.027468532
 C       -4.599537146    12.739101207    -2.445811746
 C       -4.947904051    11.721528747    -3.243992419
 C       -5.864914005    11.841094254    -4.379487128
 C       -6.148492945    10.695547092    -5.138689435
 C       -7.009988549    10.756600642    -6.223136309
 C       -7.579501101    11.986693376    -6.597912961
 C       -7.293658545    13.135538038    -5.850293712
 C       -6.451801255    13.054364297    -4.745992241
 N       -8.458319450    11.974789392    -7.725498570
 C       -7.741769677    11.760251951    -9.003760933
 C       -9.395683522    13.111109305    -7.792673957
 C       -6.618499275    12.774903421    -9.298670634
 C       -5.238729769    12.225132918    -8.879131797
 N       -4.325810756    13.342731601    -8.570591245
 C       -3.312490360    13.148317016    -7.618793486
 C       -3.358222310    12.095430255    -6.681607159
 C       -2.343547607    11.926987270    -5.752754585
 C       -1.267053070    12.821780858    -5.682125871
 C       -1.238254632    13.886129682    -6.588319511
 C       -2.239339551    14.061015173    -7.532920063
 C       -3.955558585    14.128515145    -9.761140024
 C       -0.216613259    12.606534356    -4.685707806
 C        0.849295251    13.405349451    -4.541481166
Si        2.201813750    13.207673478    -3.326242183
 C        1.947771963    11.724758862    -2.259147334
 C        1.162057897    11.813655287    -1.104770058
 C        0.964200749    10.698837864    -0.292097494
 C        1.546082156     9.468978018    -0.612643439
 C        2.330701328     9.380560767    -1.769646501
 C        2.528145372    10.492935519    -2.584602777
 C        1.365154480     8.277413648     0.209506682
 C        0.637314700     8.238207103     1.338331741
 C        0.450898609     7.051829820     2.166481630
 C        1.025040573     5.816784916     1.856137059
 C        0.819107932     4.708657672     2.678217392
 C        0.024022208     4.811540615     3.823238212
 C       -0.560904247     6.047112508     4.131926783
 C       -0.352143855     7.151348863     3.310783780
Si       -0.267123056     3.364563748     4.930062116
 C        0.750759122     1.900366113     4.371500675
 C        0.214639072     3.824293456     6.676634513
 C       -2.082087323     2.917926354     4.862398546
 C        3.814584596    13.053428579    -4.259929342
 C        2.251026802    14.741118782    -2.255249185
 C       -4.323297714    13.084368305     0.542133757
 C       -1.986252686    13.691486726    -1.330165094
 C       -0.642093170    -0.851894754    -1.533664768
 C       -0.612706799    -0.903045006     1.518344625
 H        0.556317431     2.317673896    -1.768866570
 H       -0.214943824     4.619535722    -1.789202509
 H       -2.613900782     3.894204457     1.708255415
 H       -1.885467008     1.569199387     1.753920174
 H       -2.638307872     6.039889239     0.791234580
 H       -0.901811447     6.507587455    -1.730317509
 H       -0.928701726     8.639033656    -2.664798699
 H       -1.672263094    10.954757684    -2.743148147
 H       -4.022763044    10.272726943     0.856189491
 H       -3.301048505     7.952329230     0.859943560
 H       -4.988625421    13.755527011    -2.605219984
 H       -4.568313834    10.698344945    -3.103265301
 H       -5.701575768     9.739828740    -4.862447618
 H       -7.257265254     9.857963764    -6.783940014
 H       -7.708119389    14.098697418    -6.132985442
 H       -6.236134481    13.959150135    -4.176899663
 H      -10.170448738    12.879304597    -8.543885245
 H       -8.932447129    14.074014526    -8.056583636
 H       -9.909186568    13.219277969    -6.821351173
 H       -4.748105931    14.086557153   -10.524101924
 H       -3.016153440    13.785580964   -10.226351503
 H       -3.845260879    15.189999969    -9.471858194
 H       -4.194323023    11.398176518    -6.675177648
 H       -2.400351179    11.090798709    -5.053072757
 H       -0.417746759    14.604185260    -6.555792621
 H       -2.182323693    14.911834391    -8.203240772
 H       -0.377130124    11.714906670    -4.063579325
 H        0.983915742    14.288518194    -5.187288350
 H        0.683143742    12.748604927    -0.798901291
 H        0.340799167    10.793535395     0.595895355
 H        2.792628944     8.432536627    -2.037172637
 H        3.147769823    10.361954111    -3.475565511
 H        1.875009406     7.382456879    -0.157314942
 H        0.121857830     9.133610054     1.699525506
 H        1.639523271     5.707235653     0.964274076
 H        1.292689153     3.768420345     2.381053737
 H       -1.193859791     6.185084986     5.012317464
 H       -0.816661726     8.102597198     3.562921548
 H       -7.340634398    10.721733588    -8.988919510
 H       -8.495408128    11.779251644    -9.821622351
 H       -6.619565192    13.036283578   -10.370185683
 H       -6.810219490    13.724643338    -8.757444743
 H       -5.368687854    11.591173294    -7.969180211
 H       -4.823506925    11.566631816    -9.671554800
 H        2.270189399    -1.028807870     0.011155127
 H        2.271494807     0.523822535     0.886304898
 H        2.275720569     0.504857217    -0.894109080
 H        0.558912570     1.012748055     4.998797847
 H        1.832451724     2.117748724     4.425230196
 H        0.516960033     1.628343304     3.326249979
 H        1.277852523     4.120940117     6.732038609
 H       -0.383282228     4.672118239     7.054027305
 H        0.068819464     2.978306503     7.370539596
 H       -2.388190441     2.641956185     3.837113487
 H       -2.309393376     2.061974472     5.520990056
 H       -2.717221757     3.762918278     5.181166172
 H        3.787142830    12.218892859    -4.982855603
 H        4.039374496    13.972863784    -4.828483017
 H        4.658762896    12.873009171    -3.570794677
 H        1.275460202    14.932850438    -1.774041307
 H        3.006520224    14.643469605    -1.455361045
 H        2.507411453    15.636266084    -2.848364337
 H       -5.242915450    12.494097406     0.704504324
 H       -3.675458803    12.946599255     1.425753438
 H       -4.619480474    14.147780843     0.510954310
 H       -1.475461665    13.435802664    -2.279631415
 H       -2.297698756    14.748249737    -1.407001014
 H       -1.245516961    13.618876079    -0.515277067
 H       -0.295197127    -0.347114126    -2.452698809
 H       -0.305888230    -1.902333351    -1.582165011
 H       -1.747035287    -0.853883962    -1.557512534
 H       -0.276407919    -0.410382672     2.448649002
 H       -1.715806893    -0.951244435     1.543808966
 H       -0.237589182    -1.941677780     1.541008583

