139   

Si        0.000000000     0.000000000     0.000000000
 C        1.869358825     0.000000000     0.000000000
 C       -0.651791088     1.726963099     0.000000000
 C        0.175161530     2.817976892    -0.283891797
 C       -0.335281465     4.116127483    -0.279194851
 C       -1.683209105     4.352725251     0.002841887
 C       -2.511733301     3.257542668     0.282895238
 C       -2.004717377     1.960945183     0.280664980
 C       -2.261082413     5.692558879     0.019126079
 C       -1.578462435     6.823162822    -0.229347553
 C       -2.156757730     8.163011245    -0.212970058
 C       -3.505330804     8.398207941     0.069329672
 C       -4.016494040     9.695580395     0.074253743
 C       -3.184363791    10.786937855    -0.194765278
 C       -1.832397234    10.555536239    -0.477055981
 C       -1.327111723     9.257938358    -0.489040038
Si       -3.851451975    12.506171300    -0.190466652
 C       -2.497099960    13.643299893     0.293011463
 C       -2.012344688    14.648637993    -0.447410715
 C       -0.926292675    15.532222806    -0.016541526
 C       -0.500443578    16.554576581    -0.879477487
 C        0.521311261    17.416246238    -0.520521419
 C        1.141023858    17.304288276     0.745080849
 C        0.727914657    16.269007876     1.602901529
 C       -0.267369844    15.382145253     1.205491454
 N        2.175672481    18.196530853     1.076036812
 C        1.992888913    19.613116386     0.693964264
 C        2.832296813    18.022102839     2.379707244
 C        0.594370464    20.214266469     0.922532511
 C        0.294720387    20.660021471     2.367994238
 N       -0.819400785    19.972636033     3.068696459
 C       -1.899517749    19.614682422     2.198150221
 C       -2.809293258    20.620831943     1.839568616
 C       -3.873271661    20.321522215     0.997300097
 C       -4.025250906    19.037893841     0.455073707
 C       -3.120432698    18.040095645     0.829581348
 C       -2.091924204    18.312803008     1.719968534
 C       -0.368872680    18.866509863     3.933725489
 C       -5.157495259    18.749467247    -0.431005538
 C       -5.361714320    17.546299359    -0.982231563
Si       -6.727533982    17.059139449    -2.098444919
 C       -7.622704608    15.689159418    -1.244535074
 C       -7.538052615    15.552659889     0.145031913
 C       -8.211567292    14.520283502     0.796462619
 C       -8.971186484    13.596099130     0.074016493
 C       -9.051750531    13.733918999    -1.318091422
 C       -8.389076292    14.770204570    -1.971041945
 C       -9.691967827    12.500709765     0.713901248
 C       -9.696606555    12.259328255     2.035861942
 C      -10.416767768    11.164483381     2.677434090
 C      -11.185823592    10.244846753     1.959185757
 C      -11.858072373     9.213026789     2.613273469
 C      -11.781682673     9.082172126     4.004053997
 C      -11.011430711    10.002627349     4.726042933
 C      -10.335291211    11.027911902     4.069420114
Si      -12.671266629     7.716388117     4.871855585
 C      -14.205834682     7.241274821     3.915771664
 C      -11.520816589     6.248892700     4.990959565
 C      -13.173699184     8.268550420     6.585769163
 C       -7.912186603    18.460845443    -2.426295837
 C       -5.979074312    16.453668564    -3.699193865
 C       -4.508791033    12.887587446    -1.894652905
 C       -5.227555792    12.685442201     1.057323284
 C       -0.626345858    -0.867656676    -1.531931089
 C       -0.606827140    -0.886984142     1.529922159
 H        1.237310858     2.696298721    -0.513306504
 H        0.330952135     4.948452597    -0.499415997
 H       -3.564919093     3.419913233     0.505105225
 H       -2.699252582     1.147179327     0.506943238
 H       -3.328720102     5.727510038     0.255735346
 H       -0.510942762     6.789036369    -0.466253333
 H       -4.170912379     7.565175937     0.288075238
 H       -5.080113068     9.817441856     0.300288406
 H       -1.136804247    11.373201697    -0.692816946
 H       -0.274417242     9.096015268    -0.713030095
 H       -2.088873281    13.429455573     1.294690312
 H       -2.397084956    14.889693784    -1.446963755
 H       -0.979859031    16.674184265    -1.852442177
 H        0.853824092    18.178755504    -1.220011113
 H        1.191547397    16.133408119     2.574397411
 H       -0.548113213    14.570452207     1.879533305
 H        3.743878077    18.644595928     2.412849066
 H        3.165604762    16.973983564     2.489220765
 H        2.198203804    18.288552572     3.239838331
 H        0.291910147    19.279215404     4.714360596
 H        0.159856943    18.057636003     3.406050537
 H       -1.244906549    18.430686288     4.446781928
 H       -2.680383520    21.625332079     2.237171691
 H       -4.589243940    21.102667977     0.745803287
 H       -3.218047177    17.023935222     0.437079194
 H       -1.416331457    17.510398762     2.013719240
 H       -5.818335490    19.607194235    -0.598540538
 H       -4.663949383    16.710569960    -0.785798047
 H       -6.950877100    16.242070036     0.762356010
 H       -8.138557607    14.439917179     1.879890087
 H       -9.638973386    13.024882168    -1.898344745
 H       -8.490242406    14.829639682    -3.057894894
 H      -10.253501448    11.859619324     0.028250803
 H       -9.135860500    12.901557482     2.721947485
 H      -11.266324964    10.327358226     0.876683118
 H      -12.442562636     8.524376417     1.996825236
 H      -10.914979462     9.950675103     5.814126830
 H       -9.739940269    11.732131420     4.648123616
 H        2.760391806    20.229517428     1.210597184
 H        2.237597006    19.675954417    -0.395762142
 H        0.476135297    21.086252005     0.248886485
 H       -0.178496076    19.499940438     0.568668029
 H        1.208673151    20.589349842     2.993342287
 H        0.009142512    21.740115411     2.360734686
 H        2.267653261    -1.028372028     0.064069410
 H        2.271274692     0.564535194     0.860591325
 H        2.277378812     0.454186115    -0.920173947
 H      -14.788907908     6.472456778     4.453468097
 H      -13.958855221     6.831406157     2.920877786
 H      -14.867777337     8.112992367     3.763145923
 H      -11.206693235     5.901997727     3.990089865
 H      -10.604181065     6.500712550     5.554178915
 H      -12.004565322     5.398396468     5.502659237
 H      -13.791775336     9.183846183     6.545568792
 H      -13.766882443     7.490131605     7.097958905
 H      -12.296832821     8.485740964     7.220472988
 H       -8.358733729    18.838341594    -1.487881006
 H       -7.407636819    19.309203719    -2.922111225
 H       -8.744435960    18.141119125    -3.078809087
 H       -5.309875504    15.589262230    -3.535780973
 H       -6.756484287    16.142477905    -4.418297494
 H       -5.379832490    17.247043213    -4.182223259
 H       -3.726021170    12.790103503    -2.666915397
 H       -5.329377794    12.198565677    -2.166048740
 H       -4.914454637    13.913308670    -1.944688166
 H       -4.897171191    12.419315787     2.076229022
 H       -5.603516550    13.726583411     1.085196177
 H       -6.088583242    12.039893527     0.804620520
 H       -0.280371789    -0.359262822    -2.450149770
 H       -0.273749414    -1.912959095    -1.575816936
 H       -1.730430228    -0.885138905    -1.562373694
 H       -0.286298602    -0.362021262     2.448237693
 H       -1.708547049    -0.953108848     1.554123806
 H       -0.210977787    -1.916656396     1.579784536

