139   

Si        0.000000000     0.000000000     0.000000000
 C        1.870268055     0.000000000     0.000000000
 C       -0.601608818     1.747104414     0.000000000
 C       -0.027629381     2.671422399    -0.881237051
 C       -0.461561393     3.995376609    -0.902932187
 C       -1.471316356     4.431429242    -0.039658513
 C       -2.045737343     3.505576020     0.840311096
 C       -1.621166702     2.178154462     0.856325213
 C       -1.951757040     5.810230296    -0.033602118
 C       -1.482967485     6.779008045    -0.839037563
 C       -1.948935218     8.161396988    -0.848753531
 C       -1.362936976     9.062909181    -1.748642092
 C       -1.772318044    10.392170358    -1.796823167
 C       -2.809469702    10.845645321    -0.970009467
 C       -3.397226297     9.947945911    -0.074027861
 C       -2.960293360     8.624514717    -0.003177784
Si       -3.330344890    12.611728529    -1.055668304
 C       -4.107609985    13.049672995    -2.655862807
 C       -4.328601719    12.265544889    -3.719652750
 C       -4.966132381    12.742642283    -4.953181753
 C       -5.163076044    11.861666810    -6.023275048
 C       -5.764387968    12.285020627    -7.204575260
 C       -6.223197457    13.603660052    -7.331651144
 C       -6.030837962    14.493740516    -6.256728127
 C       -5.399454522    14.067186849    -5.099051489
 N       -6.848333718    14.129062269    -8.493438327
 C       -6.693394314    13.399519145    -9.760545168
 C       -8.210330360    14.643946181    -8.267793940
 C       -7.786579586    12.362473628   -10.080057259
 C       -7.406233806    11.541497489   -11.331798883
 N       -7.568079533    10.075163296   -11.174530625
 C       -6.916533006     9.599050059    -9.998859148
 C       -5.517526165     9.746243180    -9.936709272
 C       -4.824246883     9.304453312    -8.822203368
 C       -5.492639108     8.668220296    -7.765164891
 C       -6.876807076     8.504678322    -7.843951852
 C       -7.588349390     8.961801825    -8.947961367
 C       -8.968387704     9.648551393   -11.344352552
 C       -4.712747054     8.220698940    -6.610681642
 C       -5.239439040     7.603457993    -5.545169761
Si       -4.256260028     7.047636471    -4.106516989
 C       -4.312966305     5.242521714    -3.761568430
 C       -4.515425099     4.275071168    -4.750624182
 C       -4.546702009     2.921645715    -4.415306821
 C       -4.345721282     2.504996051    -3.093354772
 C       -4.132609117     3.475225526    -2.110289180
 C       -4.120394905     4.827565142    -2.438440753
 C       -4.383686869     1.082140330    -2.770256199
 C       -4.220880441     0.593240761    -1.528950616
 C       -4.252623821    -0.819402140    -1.169929394
 C       -4.461255004    -1.834527898    -2.106298641
 C       -4.482967160    -3.172794284    -1.712446673
 C       -4.298091828    -3.522900660    -0.372062148
 C       -4.095706626    -2.505794344     0.571212574
 C       -4.079755377    -1.171593293     0.176260947
Si       -4.320719431    -5.282215045     0.184116988
 C       -4.629703184    -6.432714139    -1.255826310
 C       -2.661488936    -5.678321221     0.949506863
 C       -5.679939913    -5.496216096     1.448790845
 C       -2.455290927     7.475651536    -4.364687113
 C       -4.989498696     7.992196589    -2.670398783
 C       -4.573212848    12.987352786     0.290420626
 C       -1.817319703    13.685372186    -0.822780069
 C       -0.633090717    -0.834593132    -1.544671754
 C       -0.617206475    -0.923034651     1.503112571
 H        0.765863390     2.391860407    -1.580369316
 H       -0.004956174     4.690385464    -1.605527566
 H       -2.832243287     3.823128425     1.522012648
 H       -2.106599916     1.499768587     1.562624079
 H       -2.740117132     6.019857037     0.694550042
 H       -0.686752307     6.561504441    -1.558646619
 H       -0.563408752     8.726863501    -2.407027973
 H       -1.266961408    11.052341236    -2.508369870
 H       -4.206949665    10.246124094     0.597683881
 H       -3.421181109     7.951388181     0.717310668
 H       -4.409334570    14.112522040    -2.676763706
 H       -4.050500776    11.204155341    -3.748115420
 H       -4.845899164    10.819115201    -5.936657863
 H       -5.901029079    11.571202619    -8.015649479
 H       -6.357101335    15.526950679    -6.348623366
 H       -5.247820061    14.781220716    -4.288995338
 H       -8.562931388    15.154640832    -9.179428857
 H       -8.196374591    15.393190016    -7.457482284
 H       -8.934444486    13.859309048    -7.995055584
 H       -9.295889335     9.917923962   -12.363743191
 H       -9.670490297    10.094833497   -10.623707466
 H       -9.028377659     8.548571841   -11.269754938
 H       -4.986311111    10.204829049   -10.767766062
 H       -3.743471899     9.440822860    -8.775618937
 H       -7.417108486     8.017431036    -7.030908763
 H       -8.665924082     8.830176538    -8.974115534
 H       -3.639386862     8.433004592    -6.708355751
 H       -6.319159472     7.401192117    -5.471952174
 H       -4.665739494     4.545245148    -5.799237830
 H       -4.721294381     2.182261981    -5.193996281
 H       -3.961339186     3.181165312    -1.074527120
 H       -3.950425908     5.536224730    -1.620230415
 H       -4.560166066     0.417987787    -3.619552852
 H       -4.034938518     1.269882610    -0.686909752
 H       -4.607272875    -1.587267496    -3.156164006
 H       -4.649524345    -3.923285608    -2.489719845
 H       -3.949667589    -2.721215901     1.633225340
 H       -3.934351295    -0.391691831     0.922314292
 H       -6.673132987    14.175504878   -10.563775614
 H       -5.688581556    12.917328828    -9.773182714
 H       -7.936439857    11.702463013    -9.203196540
 H       -8.758446603    12.861168664   -10.234715012
 H       -8.004926111    11.871234911   -12.207092008
 H       -6.342961684    11.719328578   -11.614247944
 H        2.268833057    -1.029720807     0.013304614
 H        2.271597932     0.523648992     0.885959538
 H        2.278269348     0.501620048    -0.894685397
 H       -4.660922179    -7.486017980    -0.924039328
 H       -3.835134095    -6.350763384    -2.018682099
 H       -5.593667544    -6.214154927    -1.749030478
 H       -1.842274992    -5.534758379     0.221654186
 H       -2.449485579    -5.028750770     1.816931040
 H       -2.618863513    -6.725206045     1.297620594
 H       -6.667737286    -5.249397252     1.018742806
 H       -5.727422050    -6.536542827     1.815786459
 H       -5.528478398    -4.840022757     2.323867717
 H       -2.073438272     7.051426399    -5.309804180
 H       -2.297731579     8.568533041    -4.387748484
 H       -1.837561549     7.061907637    -3.546895491
 H       -6.063308810     7.766452583    -2.548621001
 H       -4.486431859     7.747745557    -1.718353831
 H       -4.892107545     9.084339680    -2.817202792
 H       -5.498099982    12.396562537     0.161365744
 H       -4.164209448    12.761892722     1.291027508
 H       -4.861707878    14.053547372     0.283456602
 H       -1.082745146    13.531280553    -1.633333772
 H       -2.080135082    14.757693444    -0.813242336
 H       -1.310591478    13.456884078     0.132096801
 H       -0.282204215    -0.323511471    -2.458224504
 H       -0.308341606    -1.888027818    -1.598703578
 H       -1.741214026    -0.830923843    -1.573537265
 H       -0.359874323    -0.397386723     2.438738358
 H       -1.714350721    -1.053434945     1.474232705
 H       -0.172133109    -1.932958833     1.555132224

