139   

Si        0.000000000     0.000000000     0.000000000
 C        1.869214683     0.000000000     0.000000000
 C       -0.628662590     1.735870183     0.000000000
 C        0.006272997     2.714519447    -0.773408462
 C       -0.461293853     4.027889146    -0.779727136
 C       -1.578118022     4.392349800    -0.022032163
 C       -2.215350445     3.410479516     0.747323647
 C       -1.747938689     2.098308288     0.758697541
 C       -2.103195938     5.753617261     0.002547768
 C       -1.585536476     6.786604593    -0.683649594
 C       -2.112594937     8.147172297    -0.657350809
 C       -1.475606907     9.132401760    -1.422047748
 C       -1.943678609    10.444991370    -1.427760566
 C       -3.059214249    10.803532842    -0.663710001
 C       -3.697871516     9.819924891     0.102130878
 C       -3.229862573     8.507466146     0.102581806
Si       -3.710723179    12.529926498    -0.643415681
 C       -5.430338512    12.550806598    -1.276270803
 C       -6.102576741    11.467827963    -1.688794692
 C       -7.475826119    11.487661830    -2.193701625
 C       -8.065313014    10.280390261    -2.594428846
 C       -9.362340067    10.241231235    -3.080071860
 C      -10.106486369    11.430999184    -3.232781821
 C       -9.513293296    12.644162047    -2.831970043
 C       -8.229802841    12.659360033    -2.301672926
 N      -11.423409735    11.389348101    -3.726071030
 C      -11.775646614    10.269521298    -4.616714242
 C      -12.010310675    12.667681711    -4.163790760
 C      -10.989745318    10.277262163    -5.937950727
 C      -11.210629677     8.963040302    -6.704071236
 N      -10.503718902     8.923301749    -7.996077270
 C      -10.907218068     9.842182586    -8.980807690
 C      -12.246594675    10.285053394    -9.033121293
 C      -12.650286391    11.190453522   -10.001150467
 C      -11.760064434    11.653378027   -10.980137598
 C      -10.441887827    11.189454232   -10.946422541
 C      -10.016491332    10.294557655    -9.973858750
 C       -9.055525842     8.700814466    -7.843227541
 C      -12.238534269    12.609853703   -11.979820828
 C      -11.477353918    13.117385866   -12.958322418
Si      -12.034355491    14.314547976   -14.228045749
 C      -11.808708630    13.542946575   -15.889095475
 C      -11.717884245    12.151588721   -16.016996539
 C      -11.547588996    11.568600568   -17.270256331
 C      -11.471748945    12.358906027   -18.424539475
 C      -11.567591578    13.747418999   -18.293291626
 C      -11.735229636    14.334770286   -17.039845983
 C      -11.292903110    11.701025070   -19.714822559
 C      -11.202321187    12.339461111   -20.893753714
 C      -11.023470526    11.680314756   -22.183396929
 C      -10.927734674    10.291932356   -22.313732609
 C      -10.757073531     9.703697694   -23.566348543
 C      -10.669677181    10.493033298   -24.718324059
 C      -10.764479680    11.884283625   -24.590199592
 C      -10.942396472    12.468820217   -23.338571995
Si      -10.443698608     9.712099567   -26.376007256
 C       -9.435069477     8.146580139   -26.211048766
 C      -12.131021048     9.307709723   -27.069497771
 C       -9.553397600    10.887913251   -27.524995960
 C      -13.835868907    14.758330421   -14.019007610
 C      -10.976689940    15.847968096   -14.082062039
 C       -3.698862388    13.161706916     1.114836247
 C       -2.672874321    13.650208548    -1.719816792
 C       -0.632837217    -0.850799837    -1.538884111
 C       -0.605254920    -0.912108429     1.515480915
 H        0.882313018     2.489969971    -1.388383156
 H        0.053638805     4.771519014    -1.385496062
 H       -3.086446302     3.672481974     1.345208129
 H       -2.285190690     1.376920157     1.380509293
 H       -2.981676083     5.892775030     0.639796586
 H       -0.706930324     6.648192314    -1.320503502
 H       -0.604691916     8.873350067    -2.021153092
 H       -1.407759160    11.169723707    -2.046682082
 H       -4.574155860    10.042526871     0.719669320
 H       -3.743765449     7.760599177     0.705121151
 H       -5.889917659    13.550581212    -1.295233077
 H       -5.661622624    10.459696969    -1.683951481
 H       -7.499180104     9.351043289    -2.513055621
 H       -9.796145567     9.282589423    -3.348375250
 H      -10.052662136    13.581676064    -2.921283212
 H       -7.801831903    13.610853792    -1.982511998
 H      -13.024204427    12.501939455    -4.564787401
 H      -11.413032971    13.181375077    -4.935297421
 H      -12.118960633    13.335183021    -3.289749143
 H       -8.867583038     7.977547406    -7.031679844
 H       -8.491145183     9.622087779    -7.622307783
 H       -8.657885903     8.249397348    -8.770252888
 H      -12.972542760     9.924958001    -8.310188845
 H      -13.684771456    11.535576008   -10.006835228
 H       -9.726880396    11.531325854   -11.697198038
 H       -8.983702595     9.960605279    -9.987094648
 H      -13.296508823    12.874841247   -11.852911011
 H      -10.417238959    12.832806362   -13.059111676
 H      -11.773431673    11.484488847   -15.149975569
 H      -11.474775647    10.485373423   -17.350274278
 H      -11.511658183    14.383901733   -19.174390942
 H      -11.802111190    15.425283407   -16.999575247
 H      -11.234148639    10.609461570   -19.666774003
 H      -11.261180659    13.430749676   -20.942364786
 H      -10.987370463     9.655258664   -21.432688403
 H      -10.691250469     8.612730232   -23.604179766
 H      -10.702438658    12.551504037   -25.454291358
 H      -11.016082997    13.551984260   -23.260169124
 H      -11.611814451     9.316265105    -4.063446971
 H      -12.870561210    10.311872389    -4.815582361
 H      -11.292234678    11.140289124    -6.561447922
 H       -9.909637138    10.424913771    -5.739228559
 H      -10.868693267     8.094913645    -6.095017511
 H      -12.295636737     8.790190442    -6.885941834
 H        2.268496764    -1.028580792     0.050279321
 H        2.268935306     0.554584977     0.868543930
 H        2.279136443     0.470032018    -0.910981863
 H       -9.224792332     7.701132414   -27.199632799
 H       -9.958669799     7.382935872   -25.609842746
 H       -8.463581540     8.346705140   -25.723609490
 H      -12.679268424     8.609071614   -26.412182845
 H      -12.751441868    10.216065701   -27.173225208
 H      -12.055052039     8.839111243   -28.066321554
 H       -8.587945877    11.212145204   -27.095990608
 H       -9.340181699    10.410247738   -28.497843570
 H      -10.150570993    11.794231513   -27.726918059
 H      -14.481117826    13.863878491   -14.093022031
 H      -14.024382894    15.229854655   -13.038357490
 H      -14.167580392    15.466569691   -14.799327287
 H       -9.912792141    15.622974696   -14.278915645
 H      -11.290070584    16.628088866   -14.797284059
 H      -11.041342390    16.280818002   -13.067291227
 H       -4.335968425    12.541431747     1.770870050
 H       -2.677542170    13.148392542     1.536410514
 H       -4.072000642    14.199200132     1.174352424
 H       -2.680175477    13.316246817    -2.773351041
 H       -3.053032413    14.687352140    -1.702044130
 H       -1.622247591    13.676883213    -1.380655433
 H       -0.289125376    -0.336328765    -2.454095598
 H       -0.284671107    -1.897242233    -1.592546996
 H       -1.737414560    -0.864310867    -1.564707427
 H       -0.309580218    -0.389330413     2.443038940
 H       -1.704928764    -1.010685668     1.521943546
 H       -0.183283202    -1.932036854     1.561630745

