139   

Si        0.000000000     0.000000000     0.000000000
 C        1.869405357     0.000000000     0.000000000
 C       -0.653749540     1.725725888     0.000000000
 C        0.173199344     2.820175291     0.269683263
 C       -0.341344277     4.116427214     0.264580921
 C       -1.693695055     4.347863932    -0.000019845
 C       -2.522237646     3.249358342    -0.265593701
 C       -2.010569580     1.954642872    -0.266176938
 C       -2.274320001     5.686008057    -0.015632386
 C       -1.584984176     6.815468544     0.217919919
 C       -2.156908729     8.157189230     0.204410398
 C       -3.507623726     8.398242775    -0.059087436
 C       -4.011155366     9.699038457    -0.061526669
 C       -3.164476926    10.783866304     0.180284263
 C       -1.807741446    10.547129283     0.438565987
 C       -1.312008173     9.247004661     0.453548989
Si       -3.789820352    12.518531833     0.185913666
 C       -2.498039300    13.514137613    -0.653024700
 C       -1.826251336    14.535907341    -0.107126004
 C       -0.799243223    15.308864369    -0.810321322
 C       -0.161421263    16.360062535    -0.133999498
 C        0.815926882    17.119960858    -0.755804847
 C        1.211203567    16.823210416    -2.075398691
 C        0.580053023    15.770550521    -2.752980860
 C       -0.420183339    15.034494993    -2.126319089
 N        2.219948843    17.639460202    -2.660704721
 C        3.488594290    17.638119934    -1.892348274
 C        2.444256623    17.439751157    -4.103831196
 C        3.940968553    16.222748231    -1.505448977
 C        5.319805684    16.207267602    -0.826408466
 N        5.491296839    15.056825563     0.097439028
 C        4.974472280    13.844243368    -0.447959056
 C        5.577046428    13.353936503    -1.622215118
 C        5.119454511    12.180376814    -2.200125143
 C        4.080839974    11.443300511    -1.611616591
 C        3.499078478    11.927001975    -0.437172775
 C        3.934772207    13.113597664     0.142692552
 C        5.038145697    15.375828100     1.464276594
 C        3.630073551    10.208122524    -2.258946098
 C        2.648140607     9.436991696    -1.775817585
Si        2.020244040     7.881383268    -2.514839360
 C        0.234922366     8.199506955    -2.858944058
 C       -0.209998371     9.519874457    -2.991463084
 C       -1.551440692     9.790663798    -3.251210747
 C       -2.473271897     8.750099549    -3.394920918
 C       -2.024483151     7.429423020    -3.267405258
 C       -0.684310880     7.154722274    -3.002179039
 C       -3.885297291     8.997483841    -3.667267984
 C       -4.423279943    10.221004017    -3.808268241
 C       -5.831170944    10.486210017    -4.080429405
 C       -6.776135541     9.465978488    -4.223591706
 C       -8.112358280     9.764994823    -4.483458582
 C       -8.533930532    11.094475346    -4.607703014
 C       -7.589015149    12.117053703    -4.468895742
 C       -6.253546166    11.815263438    -4.211750472
Si      -10.310412619    11.457442495    -4.952008253
 C      -10.785230075    10.648359759    -6.568421006
 C      -11.344691436    10.762079967    -3.558830713
 C      -10.600796816    13.299815133    -5.075091104
 C        2.890369182     7.439339771    -4.103348458
 C        2.215871210     6.506197224    -1.266256191
 C       -5.379065638    12.652054559    -0.781901615
 C       -4.067037234    13.065019108     1.948473057
 C       -0.606114571    -0.886763153    -1.530367128
 C       -0.625932974    -0.868373480     1.531636567
 H        1.238109747     2.702067738     0.487405792
 H        0.325140857     4.951895100     0.474140928
 H       -3.578678852     3.407347723    -0.473961686
 H       -2.704832419     1.137709455    -0.481067131
 H       -3.344580420     5.720875803    -0.235835614
 H       -0.513062090     6.779354022     0.436159332
 H       -4.181106555     7.568811077    -0.265035900
 H       -5.076306717     9.828170149    -0.273482273
 H       -1.100323463    11.362097588     0.624598709
 H       -0.255427184     9.077647227     0.652165575
 H       -2.301403245    13.193527256    -1.689610613
 H       -1.997948457    14.879152849     0.920742516
 H       -0.445043476    16.592434352     0.892371107
 H        1.278975065    17.951176096    -0.229527706
 H        0.869149636    15.508822915    -3.766774069
 H       -0.898229494    14.220413742    -2.673903353
 H        3.110141527    18.239219165    -4.472549731
 H        1.485910269    17.549784887    -4.641268158
 H        2.890121435    16.466808713    -4.363325563
 H        5.647550602    16.211991606     1.849148024
 H        5.228146730    14.511765317     2.124601468
 H        3.975412827    15.654990876     1.537559376
 H        6.402702859    13.901510916    -2.070792144
 H        5.583738827    11.821033326    -3.118212961
 H        2.681747764    11.379069525     0.034934976
 H        3.444455610    13.471259668     1.043727714
 H        4.176260695     9.972053523    -3.180032938
 H        2.123601342     9.709340869    -0.843174516
 H        0.464420624    10.377771897    -2.890255165
 H       -1.876914949    10.826309316    -3.334350835
 H       -2.727590026     6.605304325    -3.370833333
 H       -0.392687625     6.105323479    -2.904023180
 H       -4.502229820     8.099056587    -3.751648423
 H       -3.798586726    11.115748189    -3.720769114
 H       -6.472863788     8.424578539    -4.131163390
 H       -8.805282987     8.925069468    -4.585005646
 H       -7.860607628    13.172342188    -4.558255840
 H       -5.531744950    12.625629776    -4.116821660
 H        4.271119984    18.156154274    -2.486082584
 H        3.327748490    18.257600430    -0.981108055
 H        3.183185739    15.767605186    -0.832043506
 H        3.952488143    15.566038326    -2.396762298
 H        6.127378137    16.139002874    -1.589660889
 H        5.501754571    17.149390105    -0.267968517
 H        2.266964513    -1.029782373    -0.044802958
 H        2.277453223     0.470644643     0.911926307
 H        2.271926024     0.547975581    -0.870716278
 H      -11.844618145    10.836278549    -6.816527990
 H      -10.639382861     9.554277924    -6.532529460
 H      -10.173290391    11.035066938    -7.403677972
 H      -11.197103249     9.673287433    -3.448570481
 H      -11.079916077    11.229939389    -2.593240630
 H      -12.421166066    10.937916903    -3.730293457
 H      -10.010085696    13.749007883    -5.893361549
 H      -11.664205951    13.522141629    -5.276097761
 H      -10.327271457    13.817190688    -4.138334792
 H        2.774124893     8.235177139    -4.861521668
 H        3.971795051     7.283528959    -3.943840784
 H        2.480855010     6.510360015    -4.540022176
 H        1.770734957     6.778158061    -0.292771842
 H        1.728680337     5.576544484    -1.612972047
 H        3.282117902     6.276851654    -1.089621689
 H       -5.294822054    12.163859163    -1.771935012
 H       -6.217467946    12.166284594    -0.251266207
 H       -5.662500239    13.705743102    -0.952812622
 H       -3.139167506    12.998082276     2.544230718
 H       -4.423939763    14.108850027     1.996771983
 H       -4.822673326    12.432086271     2.448235849
 H       -0.282296854    -0.364075664    -2.448647921
 H       -0.213484292    -1.917824234    -1.578212896
 H       -1.708034614    -0.949292404    -1.556603660
 H       -0.279944940    -0.359975418     2.449916098
 H       -1.729987322    -0.886432061     1.562211881
 H       -0.272681188    -1.913542695     1.575280342

