139   

Si        0.000000000     0.000000000     0.000000000
 C        1.869414509     0.000000000     0.000000000
 C       -0.643255978     1.730566286     0.000000000
 C        0.110471006     2.778866839     0.538399571
 C       -0.382992121     4.083300850     0.534349215
 C       -1.642061784     4.369077290    -0.000416451
 C       -2.397723839     3.317236356    -0.535097698
 C       -1.906489923     2.014257048    -0.534615064
 C       -2.200319599     5.716844051    -0.027052855
 C       -1.583979919     6.812674795     0.447726689
 C       -2.149815415     8.157620818     0.417089137
 C       -1.402176470     9.217705931     0.946610946
 C       -1.902865632    10.518025916     0.938499630
 C       -3.167619371    10.784902777     0.404455670
 C       -3.917553627     9.727823031    -0.124952630
 C       -3.411619086     8.429488295    -0.119911627
Si       -3.871433488    12.490941858     0.372324617
 C       -5.679497155    12.289896004     0.581486821
 C       -6.628862660    12.677252045    -0.279207661
 C       -8.063022053    12.482341330    -0.043519746
 C       -8.973584869    12.927379449    -1.013779311
 C      -10.338880803    12.763942056    -0.832949769
 C      -10.819671389    12.150426708     0.334263970
 C       -9.920643296    11.711809992     1.311610883
 C       -8.553734660    11.886340387     1.120993557
 N      -12.246962237    12.022440151     0.438207012
 C      -12.725966577    10.776482577    -0.200664808
 C      -12.766763452    12.211696118     1.804429858
 C      -12.418819711     9.482830154     0.580647417
 C      -12.350213890     8.248752881    -0.339181592
 N      -10.982093310     7.822303985    -0.698249845
 C      -10.250742265     8.715958392    -1.515963667
 C      -10.862337191     9.201503280    -2.690120397
 C      -10.182790224    10.077957652    -3.519387893
 C       -8.860382521    10.456090132    -3.243542983
 C       -8.244631470     9.943056039    -2.099671862
 C       -8.919979983     9.076428889    -1.248083391
 C      -10.254720854     7.239821951     0.442442524
 C       -8.194270838    11.385395409    -4.156313734
 C       -6.937683566    11.825959276    -4.009859345
Si       -6.113299390    12.990110317    -5.159491414
 C       -7.265783368    13.449885402    -6.523470543
 C       -6.960928713    13.196352890    -7.864433182
 C       -7.853847883    13.556383793    -8.872097428
 C       -9.072087170    14.174363600    -8.563834764
 C       -9.374879684    14.425851893    -7.221851883
 C       -8.483369800    14.069160908    -6.212348447
 C       -9.973865437    14.532521139    -9.653787759
 C      -11.167239045    15.129554466    -9.494497200
 C      -12.068812799    15.487596311   -10.584651609
 C      -11.766819151    15.236542441   -11.926075461
 C      -12.657927180    15.595575799   -12.936576228
 C      -13.878420958    16.205619293   -12.626785044
 C      -14.184013530    16.456824308   -11.283435119
 C      -13.288185409    16.105067278   -10.276556635
Si      -15.057053057    16.680274123   -13.966538721
 C      -14.922777977    15.475850872   -15.390065250
 C      -16.810571825    16.657675234   -13.318457920
 C      -14.620949264    18.401142599   -14.549499880
 C       -5.664780096    14.540388755    -4.214529527
 C       -4.564843033    12.176947956    -5.811954311
 C       -3.222450785    13.519126105     1.787948909
 C       -3.428379232    13.286336426    -1.255516289
 C       -0.602129959    -0.900300232    -1.523931008
 C       -0.631017227    -0.859926559     1.534355251
 H        1.101698680     2.617546180     0.971125617
 H        0.225639630     4.881629074     0.955507476
 H       -3.380779033     3.518086776    -0.957539980
 H       -2.541754534     1.236350286    -0.967390984
 H       -3.195446742     5.789527019    -0.477159470
 H       -0.589328312     6.743206451     0.897135246
 H       -0.417662428     9.026475795     1.369395627
 H       -1.275171375    11.304932623     1.364767585
 H       -4.915067442     9.878809660    -0.553052765
 H       -4.012942135     7.623927716    -0.539004177
 H       -5.945072247    11.793456871     1.530869024
 H       -6.406607069    13.176399774    -1.231677480
 H       -8.606667369    13.394731246    -1.929045423
 H      -11.046755655    13.104657910    -1.587668074
 H      -10.282038090    11.243099259     2.221987566
 H       -7.864598818    11.542500972     1.892869524
 H      -13.865291605    12.302897720     1.746831801
 H      -12.376952045    13.162461106     2.208457141
 H      -12.521171857    11.407047411     2.512179965
 H      -10.890121853     6.481821714     0.931005167
 H       -9.943808285     7.974572657     1.202254114
 H       -9.357669255     6.713697119     0.067841991
 H      -11.869936801     8.885604825    -2.947433142
 H      -10.679887964    10.462926285    -4.410824765
 H       -7.218813498    10.228760247    -1.857110953
 H       -8.410737306     8.712958411    -0.360755185
 H       -8.835278588    11.690882026    -4.997079872
 H       -6.309266379    11.496639565    -3.167400331
 H       -6.027441706    12.713301700    -8.166160149
 H       -7.598461325    13.351734922    -9.910283471
 H      -10.315121986    14.905542302    -6.955573320
 H       -8.774381992    14.293851357    -5.180763080
 H       -9.608172640    14.276740260   -10.652791155
 H      -11.533025374    15.385917340    -8.495792339
 H      -10.827076119    14.756532267   -12.193748819
 H      -12.363686009    15.376683995   -13.966878250
 H      -15.122394479    16.929759604   -10.980805649
 H      -13.542885985    16.311332429    -9.238572643
 H      -13.822401072    10.884548166    -0.350655768
 H      -12.269492195    10.728637547    -1.218004378
 H      -11.459494670     9.594911362     1.122868071
 H      -13.183827242     9.327625080     1.361473189
 H      -12.848429876     7.381114879     0.151493368
 H      -12.922774587     8.424306736    -1.276961812
 H        2.267929066    -1.028124763    -0.065618949
 H        2.279619693     0.454274749     0.918858101
 H        2.269497372     0.566223808    -0.860584104
 H      -15.667815558    15.699817769   -16.174121089
 H      -15.097261510    14.437874296   -15.053148680
 H      -13.925857096    15.509655313   -15.863150914
 H      -17.066423617    15.670979092   -12.891680040
 H      -16.965922161    17.413892497   -12.529284543
 H      -17.536218121    16.868366172   -14.124187567
 H      -13.588497927    18.444035728   -14.940589633
 H      -15.297776566    18.736944689   -15.354634453
 H      -14.690881377    19.134443409   -13.725935665
 H       -6.557438676    15.015337662    -3.769703354
 H       -4.955181575    14.326430800    -3.395777237
 H       -5.191785721    15.285013679    -4.879515208
 H       -4.799379691    11.241722744    -6.352714756
 H       -4.020051880    12.839889263    -6.506570684
 H       -3.871531747    11.914082059    -4.992102507
 H       -3.398096723    13.025118255     2.760686654
 H       -2.136942575    13.698458822     1.696218927
 H       -3.719081661    14.505971290     1.825782451
 H       -3.752582767    12.661792469    -2.108534559
 H       -3.897296272    14.281187204    -1.359115696
 H       -2.335872373    13.422832770    -1.349571550
 H       -0.308235789    -0.366309506    -2.445836714
 H       -0.177359656    -1.918336310    -1.580236594
 H       -1.701517134    -1.000683995    -1.533406220
 H       -0.285653223    -0.350140065     2.451775115
 H       -1.735368133    -0.874145394     1.562206261
 H       -0.281849377    -1.906335736     1.581784358

