139   

Si        0.000000000     0.000000000     0.000000000
 C        1.868349035     0.000000000     0.000000000
 C       -0.636725374     1.733076497     0.000000000
 C        0.066900151     2.749941867    -0.654811636
 C       -0.414086073     4.058570883    -0.654689358
 C       -1.597724100     4.384424473     0.013994517
 C       -2.300937639     3.365240920     0.668662890
 C       -1.832203645     2.053777046     0.654809399
 C       -2.139177297     5.739149673     0.041476585
 C       -1.572738400     6.799392243    -0.559362172
 C       -2.111252403     8.155289212    -0.533997997
 C       -1.413787374     9.168254822    -1.206271028
 C       -1.887859115    10.476596753    -1.210428280
 C       -3.084592436    10.801688742    -0.556387837
 C       -3.780785982     9.793573623     0.115493836
 C       -3.292650634     8.486753820     0.134512052
Si       -3.680276253    12.546080650    -0.584023882
 C       -4.376019324    12.984878215    -2.218972869
 C       -4.471838648    12.194619942    -3.296995096
 C       -5.047169104    12.633978559    -4.572284128
 C       -5.106794610    11.736618299    -5.649742548
 C       -5.644133241    12.118570365    -6.869283924
 C       -6.171220116    13.414211081    -7.043212292
 C       -6.109268705    14.315580101    -5.968380585
 C       -5.537759315    13.928045790    -4.761780776
 N       -6.711982680    13.768317848    -8.304136476
 C       -7.719227256    12.845156495    -8.855921199
 C       -7.081937187    15.182297589    -8.483827383
 C       -8.995210743    12.742608201    -8.002009533
 C      -10.058840022    11.830409379    -8.637663568
 N       -9.621149484    10.455667015    -8.967610512
 C       -8.738482310     9.866632363    -8.031630085
 C       -9.114725962     9.875366068    -6.672126654
 C       -8.285198636     9.311565499    -5.718281245
 C       -7.081525215     8.689124670    -6.084385655
 C       -6.726591950     8.659648357    -7.433886303
 C       -7.542708516     9.232771131    -8.403259212
 C       -9.282530369    10.281058425   -10.389652656
 C       -6.244613547     8.110319997    -5.032729078
 C       -5.077178595     7.491542929    -5.252954879
Si       -4.040345825     6.771901716    -3.927072529
 C       -3.784575126     4.961349185    -4.148834518
 C       -4.437961792     4.222960099    -5.138244271
 C       -4.208030336     2.852035795    -5.263131942
 C       -3.332344853     2.191283357    -4.397378754
 C       -2.683080189     2.934006042    -3.402168932
 C       -2.906041170     4.301448770    -3.278871410
 C       -3.059355980     0.760892050    -4.487632629
 C       -3.609704120    -0.069070963    -5.389717329
 C       -3.335017572    -1.499520448    -5.477952843
 C       -2.453757927    -2.152774090    -4.612098566
 C       -2.219665248    -3.522030285    -4.731139397
 C       -2.870066424    -4.272531954    -5.716162677
 C       -3.754736427    -3.621119848    -6.584842059
 C       -3.980834641    -2.251865508    -6.467981741
Si       -2.563162178    -6.085509014    -5.877380551
 C       -2.067515383    -6.803853758    -4.223661553
 C       -4.114936315    -6.944636411    -6.468441570
 C       -1.186748720    -6.341126250    -7.115208762
 C       -2.389589987     7.643013659    -4.000074689
 C       -4.868861924     7.015475012    -2.272099257
 C       -5.017559407    12.795255970     0.699109863
 C       -2.247448659    13.688929386    -0.215183956
 C       -0.635381075    -0.838305507    -1.545246360
 C       -0.614030628    -0.915069681     1.509105553
 H        1.003845691     2.558744640    -1.185605302
 H        0.149351668     4.829654949    -1.177376034
 H       -3.229425609     3.595512152     1.188389006
 H       -2.430288692     1.299536713     1.173812742
 H       -3.070842856     5.847730290     0.604724181
 H       -0.636645925     6.689237597    -1.115656504
 H       -0.487061483     8.933550285    -1.726978208
 H       -1.297375082    11.225973952    -1.746698552
 H       -4.716862527     9.989637514     0.645503496
 H       -3.845974707     7.723234714     0.678536207
 H       -4.737291989    14.026835490    -2.252216702
 H       -4.128384399    11.151348987    -3.305671100
 H       -4.730753285    10.717803443    -5.528440614
 H       -5.668458621    11.407461780    -7.692873599
 H       -6.508559879    15.320058394    -6.059975362
 H       -5.493124993    14.652457577    -3.947697258
 H       -7.334962338    15.356341712    -9.543773021
 H       -6.207967174    15.818604749    -8.255269452
 H       -7.932259147    15.508661996    -7.865037832
 H      -10.131457408    10.624346692   -11.006061606
 H       -9.154173936     9.204329048   -10.603411804
 H       -8.377169400    10.818227971   -10.711693946
 H      -10.058696226    10.325682834    -6.376343835
 H       -8.577694315     9.346424725    -4.668142400
 H       -5.795884687     8.181500925    -7.742553823
 H       -7.230618438     9.195249858    -9.441913471
 H       -6.672631101     8.233673357    -4.028059411
 H       -4.667177227     7.382934636    -6.268037356
 H       -5.140308197     4.686326491    -5.836907259
 H       -4.724354841     2.297708985    -6.044387727
 H       -1.999601763     2.440821580    -2.710190947
 H       -2.372271097     4.826833012    -2.478433698
 H       -2.349598221     0.385376573    -3.743044573
 H       -4.319997336     0.306676789    -6.131590469
 H       -1.937639654    -1.592402322    -3.833422122
 H       -1.517744394    -3.975336337    -4.025905670
 H       -4.291828585    -4.155436940    -7.373207387
 H       -4.670581067    -1.763558881    -7.153951821
 H       -7.966018221    13.176554005    -9.888290047
 H       -7.244090765    11.840660929    -8.954800289
 H       -8.725176202    12.371123835    -6.991223854
 H       -9.428834623    13.745845796    -7.838527435
 H      -10.919450458    11.727814864    -7.932152191
 H      -10.469736581    12.310844652    -9.551890603
 H        2.268235310    -1.027695891     0.062275108
 H        2.268355366     0.562438383     0.863098466
 H        2.281215715     0.458698023    -0.915531196
 H       -1.950603691    -7.900472719    -4.284357298
 H       -2.830424034    -6.593706981    -3.452280312
 H       -1.108337839    -6.389324295    -3.867611736
 H       -4.966726126    -6.738174721    -5.795187520
 H       -4.404373424    -6.616451121    -7.481994891
 H       -3.976740163    -8.039865352    -6.502830819
 H       -0.256943890    -5.839913897    -6.791111813
 H       -0.959683077    -7.413148629    -7.249770684
 H       -1.454206273    -5.928714858    -8.104699802
 H       -1.935736533     7.564652285    -5.003279095
 H       -2.496215768     8.717384393    -3.759550551
 H       -1.677462040     7.209983855    -3.275820832
 H       -5.887424398     6.588849996    -2.266076639
 H       -4.296912900     6.515596789    -1.469031530
 H       -4.943525285     8.087222528    -2.010032254
 H       -5.915917056    12.194486332     0.469738878
 H       -4.666241214    12.507092219     1.705670596
 H       -5.334097799    13.852203014     0.748346572
 H       -1.471750195    13.635103128    -0.999849754
 H       -2.577761499    14.740563381    -0.149560031
 H       -1.767983117    13.428927062     0.745594213
 H       -0.278726073    -0.321523141    -2.455085241
 H       -0.294871258    -1.887555000    -1.599587820
 H       -1.741329436    -0.842320807    -1.566415318
 H       -0.331116031    -0.389650680     2.439039667
 H       -1.713139207    -1.021777075     1.507415022
 H       -0.185728650    -1.931835041     1.561828941

