139   

Si        0.000000000     0.000000000     0.000000000
 C        1.869203572     0.000000000     0.000000000
 C       -0.650311661     1.727853014     0.000000000
 C        0.165871333     2.812753575     0.334563869
 C       -0.342275371     4.111817442     0.329312975
 C       -1.676948931     4.355387121    -0.005080840
 C       -2.494740304     3.266460837    -0.336068078
 C       -1.990131749     1.968860961    -0.332410874
 C       -2.252543557     5.696279746    -0.024243413
 C       -1.580043117     6.821807107     0.270551278
 C       -2.156231766     8.162511579     0.251209868
 C       -3.491870653     8.403748850    -0.083679632
 C       -4.001909571     9.701474451    -0.089574961
 C       -3.181758011    10.787580870     0.233235289
 C       -1.843179740    10.550280931     0.568768473
 C       -1.339089203     9.252108144     0.580057931
Si       -3.850439322    12.506625605     0.227251722
 C       -2.451633130    13.664811603    -0.017881319
 C       -2.080736784    14.628599233     0.834807417
 C       -0.954929595    15.537086627     0.604451996
 C       -0.661123332    16.510187311     1.572862038
 C        0.392023832    17.392318296     1.402479927
 C        1.174376886    17.345528383     0.228955347
 C        0.887011806    16.370306304    -0.739027663
 C       -0.153120736    15.469371372    -0.536606193
 N        2.237880993    18.268296433     0.104558442
 C        1.869041296    19.691432736     0.284803293
 C        3.176012517    18.044436719    -1.007376602
 C        0.490514377    20.101173141    -0.258766827
 C        0.344938300    19.850816410    -1.770251538
 N       -1.053800520    19.885709277    -2.230702738
 C       -1.744435192    21.103880799    -2.114688247
 C       -1.046158950    22.327532114    -2.207312995
 C       -1.721611228    23.531673933    -2.093720758
 C       -3.114323221    23.571491452    -1.935120448
 C       -3.808105289    22.359752425    -1.876710904
 C       -3.145450984    21.143322446    -1.972200518
 C       -1.799122646    18.661162693    -1.890900234
 C       -3.776230186    24.871419100    -1.820094010
 C       -5.097063525    25.035423826    -1.665771735
Si       -5.932173885    26.658094726    -1.521184914
 C       -4.677913524    28.008371041    -1.621115219
 C       -3.846534574    28.269047360    -0.525209918
 C       -2.894070533    29.285020901    -0.583867978
 C       -2.742106591    30.055595068    -1.740556515
 C       -3.570456199    29.788675206    -2.837990009
 C       -4.526590611    28.777035803    -2.780695468
 C       -1.759104629    31.128842107    -1.847667716
 C       -0.906660598    31.486054049    -0.872072315
 C        0.076093138    32.559498394    -0.980029005
 C        0.224287143    33.332599105    -2.135102540
 C        1.176869515    34.349080861    -2.195017147
 C        1.997640559    34.622160911    -1.095052641
 C        1.850060893    33.849806304     0.063589614
 C        0.903472047    32.829535670     0.117816994
Si        3.257613815    35.969249073    -1.179260449
 C        2.622596035    37.367067047    -2.245899487
 C        3.613053561    36.627740362     0.533966467
 C        4.820878204    35.265036828    -1.922093350
 C       -7.179387492    26.812308536    -2.904494229
 C       -6.817389994    26.747510986     0.122474298
 C       -5.040876918    12.735454575    -1.194368505
 C       -4.725858719    12.810515060     1.847569336
 C       -0.605610608    -0.888658959    -1.529268292
 C       -0.627917002    -0.866028361     1.531991770
 H        1.217841782     2.685571123     0.604661573
 H        0.315150706     4.939114359     0.591302384
 H       -3.537581595     3.433969279    -0.599277677
 H       -2.676095744     1.159998028    -0.599091895
 H       -3.309307037     5.735955784    -0.304511465
 H       -0.523267250     6.782276057     0.551125523
 H       -4.147866466     7.574781371    -0.342844270
 H       -5.054227374     9.827714663    -0.358256325
 H       -1.157628012    11.363448461     0.830071992
 H       -0.296581607     9.085800690     0.845899756
 H       -1.912252593    13.504806169    -0.965947382
 H       -2.598719441    14.813274680     1.785041902
 H       -1.265078849    16.568428256     2.479138274
 H        0.627075772    18.120107473     2.175878853
 H        1.470546521    16.303480043    -1.652092600
 H       -0.347402528    14.709302830    -1.295293009
 H        4.058268438    18.693891512    -0.866222170
 H        2.756642667    18.238732841    -2.006671122
 H        3.542876320    17.002512397    -0.971757317
 H       -1.133514014    17.780333272    -1.932885043
 H       -2.593024127    18.502815048    -2.642899177
 H       -2.252994104    18.686146092    -0.886542971
 H        0.028457166    22.335497920    -2.362569439
 H       -1.158606754    24.464955550    -2.144196885
 H       -4.892324685    22.361384746    -1.756020187
 H       -3.724597938    20.226717601    -1.924979050
 H       -3.076458187    25.718504221    -1.874253553
 H       -5.779127541    24.173272408    -1.617529469
 H       -3.914619620    27.695929526     0.404414050
 H       -2.264110983    29.472966133     0.283622311
 H       -3.468295132    30.376260647    -3.748442688
 H       -5.143816573    28.614577467    -3.668695733
 H       -1.754326379    31.649914912    -2.809680623
 H       -0.911129238    30.965273757     0.089983360
 H       -0.406010009    33.144634805    -3.002526320
 H        1.247437186    34.916935618    -3.127004371
 H        2.462155309    34.017754831     0.954021204
 H        0.805755572    32.238814903     1.026830840
 H        1.900426302    19.888456458     1.384180201
 H        2.658234101    20.332936720    -0.164349827
 H       -0.307876948    19.556486798     0.285235738
 H        0.308237725    21.171010391    -0.036058263
 H        0.934035686    20.594224278    -2.351759024
 H        0.762900754    18.854412043    -2.043682803
 H        2.267266950    -1.028504375    -0.064732409
 H        2.278035803     0.453681652     0.920043224
 H        2.270934114     0.564847143    -0.860511593
 H        3.328527167    38.216578107    -2.253203590
 H        1.652662660    37.744488914    -1.873991141
 H        2.477016835    37.050006455    -3.293301872
 H        2.687433641    36.970743192     1.030831756
 H        4.074853201    35.860742323     1.179977509
 H        4.306264818    37.486932901     0.495313493
 H        4.641060332    34.869396322    -2.937866621
 H        5.612191985    36.031434331    -1.996782720
 H        5.216890149    34.433621452    -1.311534970
 H       -6.706573290    26.673477582    -3.893576106
 H       -7.975287620    26.051910123    -2.812536103
 H       -7.665224284    27.804147948    -2.898377619
 H       -6.124373050    26.584068469     0.966969461
 H       -7.290505008    27.735582842     0.266236994
 H       -7.611284831    25.983427804     0.194271060
 H       -4.570978731    12.473543757    -2.159699462
 H       -5.938784227    12.103603177    -1.078910312
 H       -5.379977352    13.784918799    -1.264867098
 H       -4.038865293    12.689975806     2.705286708
 H       -5.147701348    13.830119436     1.894110113
 H       -5.558247121    12.098428057     1.992971666
 H       -0.293335582    -0.359633237    -2.448103752
 H       -0.201434721    -1.915012027    -1.582778547
 H       -1.706823758    -0.964523603    -1.549284459
 H       -0.282395997    -0.357403350     2.450296962
 H       -1.732051012    -0.883299215     1.561720175
 H       -0.275667478    -1.911536130     1.576753739

