139   

Si        0.000000000     0.000000000     0.000000000
 C        1.869281009     0.000000000     0.000000000
 C       -0.635935845     1.733461427     0.000000000
 C        0.073795328     2.752111787    -0.645358461
 C       -0.405994190     4.061372851    -0.645670960
 C       -1.608579090     4.381617587    -0.009375539
 C       -2.320629118     3.359562423     0.631750877
 C       -1.842221139     2.051556090     0.636220350
 C       -2.149721852     5.736590771     0.016455211
 C       -1.567546640     6.804670528    -0.554702577
 C       -2.110782647     8.158836853    -0.527470783
 C       -1.400348328     9.183836120    -1.164571174
 C       -1.880633080    10.492026298    -1.164362894
 C       -3.081720990    10.806178155    -0.519959038
 C       -3.793735543     9.783056817     0.118857171
 C       -3.313476440     8.475062469     0.112270663
Si       -3.752365402    12.524522739    -0.496079322
 C       -5.381057483    12.563662648    -1.337401360
 C       -5.980121004    11.496839557    -1.882068406
 C       -7.281017670    11.530762101    -2.553484789
 C       -7.794637281    10.335594230    -3.081488641
 C       -9.019802018    10.310504712    -3.726226524
 C       -9.755695569    11.501110030    -3.896370434
 C       -9.247233600    12.697072557    -3.368248069
 C       -8.033711318    12.699197070    -2.687914268
 N      -11.001612822    11.405873563    -4.564584718
 C      -10.936929665    10.914335611    -5.955221524
 C      -11.923744757    12.536310374    -4.379378685
 C      -10.671727568    11.972089655    -7.040781140
 C       -9.262829451    12.592761839    -6.997112171
 N       -8.179553693    11.748253256    -7.525447330
 C       -8.355601817    11.170058015    -8.788749906
 C       -9.033370742    11.891907400    -9.797138248
 C       -9.217297155    11.337246190   -11.052357631
 C       -8.697305416    10.074127271   -11.372000154
 C       -8.001084212     9.374872240   -10.382439154
 C       -7.822567882     9.906837692    -9.112287220
 C       -7.463954128    10.964564047    -6.510747588
 C       -8.922159032     9.536837864   -12.714160525
 C       -8.476423452     8.345871917   -13.136024739
Si       -8.746606566     7.655331151   -14.810155644
 C       -9.723267924     8.834760415   -15.839796338
 C      -11.004852797     9.215252266   -15.416553415
 C      -11.763538568    10.103175001   -16.173408225
 C      -11.263206005    10.634658502   -17.370224317
 C       -9.985980004    10.253955567   -17.788998969
 C       -9.223154560     9.363365284   -17.032752071
 C      -12.097080446    11.561800056   -18.128030048
 C      -11.739966164    12.140902741   -19.286910796
 C      -12.575196284    13.067994615   -20.043582462
 C      -13.852357688    13.447490901   -19.623024569
 C      -14.616970496    14.337184264   -20.378004498
 C      -14.119239062    14.867520618   -21.571676499
 C      -12.838571324    14.488102400   -21.996698830
 C      -12.078409504    13.599158863   -21.241831123
Si      -15.105640176    16.046747207   -22.593438108
 C      -16.719286658    16.468893124   -21.749750289
 C      -14.112132289    17.611191688   -22.836956544
 C      -15.461377263    15.250064836   -24.246118301
 C       -7.077637487     7.322275688   -15.582299438
 C       -9.699764098     6.054307122   -14.664305807
 C       -3.968532450    13.069729293     1.277243804
 C       -2.606073928    13.703684569    -1.381815747
 C       -0.631921945    -0.854808709    -1.536754584
 C       -0.603761850    -0.905537485     1.520095082
 H        1.019447821     2.563331448    -1.161200194
 H        0.167850944     4.836471616    -1.150697186
 H       -3.259417720     3.586926106     1.133692845
 H       -2.440821466     1.297405406     1.154638384
 H       -3.098883397     5.839095428     0.551102941
 H       -0.618406218     6.702741784    -1.089017025
 H       -0.462043301     8.959496712    -1.668594446
 H       -1.284847002    11.248943142    -1.681839390
 H       -4.738206542     9.970144654     0.640010477
 H       -3.885306133     7.696806057     0.614700379
 H       -5.848794153    13.559628947    -1.364923218
 H       -5.528426825    10.493497241    -1.870388399
 H       -7.229089030     9.409210806    -2.968938801
 H       -9.428350283     9.370379980    -4.091998476
 H       -9.794890960    13.628021776    -3.478619664
 H       -7.663010065    13.636470247    -2.271306557
 H      -12.907051282    12.267561123    -4.803709924
 H      -11.590175941    13.478680045    -4.841156315
 H      -12.072608716    12.706844558    -3.297859042
 H       -7.340668761    11.561393016    -5.587744146
 H       -6.446395100    10.735896500    -6.878124835
 H       -7.968521489    10.022951425    -6.239934227
 H       -9.411264527    12.888894746    -9.591548767
 H       -9.761015936    11.902731965   -11.810590397
 H       -7.586113156     8.390813670   -10.604977893
 H       -7.280179047     9.327258923    -8.372490130
 H       -9.497072846    10.216752692   -13.360095052
 H       -7.896139648     7.686674305   -12.472175014
 H      -11.448037309     8.831959166   -14.491894617
 H      -12.756784347    10.386395545   -15.830210827
 H       -9.573251324    10.651800316   -18.714273158
 H       -8.230409675     9.104344436   -17.410859452
 H      -13.073818397    11.768492278   -17.680572226
 H      -10.763663535    11.934401463   -19.735386838
 H      -14.263600866    13.049241809   -18.697162965
 H      -15.608824888    14.596023068   -19.997463337
 H      -12.397845663    14.870007442   -22.921962180
 H      -11.086289948    13.315305585   -21.588304333
 H      -10.170007651    10.110731014    -6.023666911
 H      -11.917810820    10.420967450    -6.159871817
 H      -10.840982218    11.502414605    -8.033123173
 H      -11.423387564    12.780540265    -6.974371813
 H       -9.259666779    13.540517421    -7.588326565
 H       -9.009504392    12.891170376    -5.953844108
 H        2.268067694    -1.027686278     0.070849191
 H        2.269380863     0.571089107     0.857498388
 H        2.279558158     0.450242127    -0.920781003
 H      -17.300591148    17.196385977   -22.344205162
 H      -16.550072176    16.916825055   -20.754245724
 H      -17.352483708    15.574273111   -21.613478102
 H      -13.875751931    18.088968148   -21.868720107
 H      -13.154093681    17.409110382   -23.347509721
 H      -14.665437782    18.347886865   -23.445549269
 H      -16.042392049    14.317904294   -24.123528757
 H      -16.043990755    15.922286004   -24.900174751
 H      -14.530033988    14.989386613   -24.779378661
 H       -6.481735275     8.249625009   -15.665352622
 H       -6.491179947     6.608582603   -14.976496565
 H       -7.178427515     6.893033705   -16.594559996
 H      -10.680344011     6.211347752   -14.180193726
 H       -9.888580170     5.611394262   -15.658707772
 H       -9.148621146     5.308722642   -14.064922060
 H       -4.676785771    12.416041718     1.817796300
 H       -3.007902560    13.039034917     1.823002536
 H       -4.355467802    14.102035748     1.339581644
 H       -2.484915850    13.425854872    -2.444836567
 H       -2.994772518    14.737524297    -1.355427663
 H       -1.603062938    13.715700449    -0.919271204
 H       -0.288086478    -0.341848619    -2.452930743
 H       -0.282474425    -1.900977235    -1.588181567
 H       -1.736400856    -0.869492680    -1.563323333
 H       -0.314069773    -0.373105912     2.444190723
 H       -1.702710065    -1.010749988     1.525554970
 H       -0.175309672    -1.922236439     1.575203708

