139   

Si        0.000000000     0.000000000     0.000000000
 C        1.869071883     0.000000000     0.000000000
 C       -0.652600225     1.726980165     0.000000000
 C        0.194418699     2.828723529     0.151136103
 C       -0.320163447     4.125326398     0.148191369
 C       -1.690767220     4.349909833    -0.003589315
 C       -2.538873963     3.244080506    -0.152726893
 C       -2.028340668     1.948878657    -0.149933681
 C       -2.272615289     5.688355834    -0.012609164
 C       -1.569819312     6.825961729     0.121063024
 C       -2.145337192     8.166861810     0.112899814
 C       -3.515040287     8.400228113    -0.038383036
 C       -4.020979541     9.700199681    -0.040157360
 C       -3.163148021    10.794499260     0.102220953
 C       -1.789151122    10.564956955     0.253140801
 C       -1.288643115     9.266033415     0.260830299
Si       -3.800007701    12.526606600     0.104033084
 C       -2.469372923    13.578784339    -0.589339884
 C       -1.867671517    14.593882171     0.043512929
 C       -0.806114931    15.410405920    -0.549806057
 C       -0.247427185    16.450777012     0.209495422
 C        0.757940790    17.250112041    -0.306740916
 C        1.254251659    17.013814289    -1.605938525
 C        0.691735285    15.981862451    -2.371904283
 C       -0.339843383    15.208004920    -1.850120541
 N        2.282617128    17.863015421    -2.081705366
 C        3.497618375    17.905459958    -1.232439986
 C        2.581602195    17.781075608    -3.520943317
 C        3.865375648    16.595294011    -0.515657846
 C        4.160100831    15.440593994    -1.489893522
 N        4.108999760    14.114268106    -0.851520078
 C        5.050440158    13.833206467     0.150513522
 C        6.320767725    14.449424928     0.129743199
 C        7.251154445    14.172749670     1.118513461
 C        6.979579640    13.245272937     2.134067468
 C        5.733220857    12.612152931     2.134755962
 C        4.783532729    12.887344429     1.160920215
 C        2.735865592    13.628873595    -0.633845678
 C        7.997476355    12.989959589     3.154545438
 C        7.843820632    12.126525574     4.167218941
Si        9.085603510    11.773451922     5.465966516
 C        9.507414409     9.978289608     5.385466809
 C        9.239436040     9.239273680     4.228661297
 C        9.557328103     7.883001701     4.165826440
 C       10.154769497     7.238290558     5.252364696
 C       10.425981361     7.982518430     6.408539167
 C       10.107663789     9.336589658     6.475730668
 C       10.504610759     5.821578627     5.231210136
 C       10.298222296     4.999333254     4.188524781
 C       10.647228194     3.582595576     4.165251502
 C       11.242608005     2.934314154     5.251062600
 C       11.559371073     1.578040872     5.185124039
 C       11.295008880     0.840130291     4.026129927
 C       10.699474416     1.487577685     2.936619179
 C       10.377337008     2.840739392     3.007894419
Si       11.715682994    -0.955587820     3.942110725
 C       13.248954550    -1.298805280     4.955396749
 C       10.274497637    -1.928893841     4.625963062
 C       12.035195119    -1.460743966     2.170745931
 C       10.648228112    12.764856785     5.219283621
 C        8.324022769    12.179971111     7.122997647
 C       -5.302661580    12.684575002    -0.992440565
 C       -4.233363677    13.006940319     1.854116579
 C       -0.612138880    -0.879914646    -1.531341767
 C       -0.623038097    -0.871016231     1.531247808
 H        1.275300374     2.717372038     0.274614536
 H        0.361890381     4.965764281     0.265990601
 H       -3.609972820     3.396737127    -0.271887423
 H       -2.738732668     1.126132674    -0.270046539
 H       -3.358706839     5.715195583    -0.139773705
 H       -0.483343162     6.796754065     0.248707850
 H       -4.201527773     7.563731375    -0.155596317
 H       -5.100871234     9.821003759    -0.160655045
 H       -1.072272924    11.385415774     0.366816117
 H       -0.218542860     9.105273792     0.380965363
 H       -2.187328191    13.301067323    -1.618480926
 H       -2.127783918    14.895801991     1.066320996
 H       -0.613829302    16.638128949     1.219551199
 H        1.164608100    18.070193144     0.281117175
 H        1.045694224    15.778236041    -3.378055502
 H       -0.775016763    14.421900071    -2.469523058
 H        3.221980853    18.637315652    -3.798616739
 H        1.644455121    17.888694142    -4.096385909
 H        3.084941735    16.853430767    -3.833561365
 H        2.076060225    13.960816493    -1.455573881
 H        2.290080649    13.979648135     0.311847072
 H        2.735205139    12.523855996    -0.647180976
 H        6.577478831    15.150364705    -0.658468243
 H        8.217128514    14.678261427     1.094594463
 H        5.495650305    11.883427502     2.912043015
 H        3.829891367    12.370146623     1.198743378
 H        8.913227539    13.578185326     3.009777263
 H        6.910459606    11.552248059     4.285766117
 H        8.775442513     9.691062096     3.345093450
 H        9.336176691     7.328340457     3.255551622
 H       10.890906971     7.499153299     7.265559849
 H       10.341415789     9.865760922     7.403389522
 H       10.964470027     5.449968872     6.151605280
 H        9.838454380     5.371744519     3.268090221
 H       11.463965424     3.487084636     6.162403648
 H       12.021213837     1.126629999     6.067693402
 H       10.470470540     0.963237130     2.004900862
 H        9.912910151     3.325504853     2.150991636
 H        4.357783177    18.257908810    -1.841353258
 H        3.314210640    18.698275773    -0.466735733
 H        4.741835782    16.766649255     0.139632156
 H        3.049115608    16.299254153     0.174424984
 H        3.425813162    15.438892376    -2.327943748
 H        5.157811542    15.571874567    -1.964908057
 H        2.266824909    -1.029836298    -0.042856228
 H        2.276159814     0.472306650     0.911817095
 H        2.272625697     0.546221918    -0.871390777
 H       13.556434776    -2.356076040     4.868574052
 H       13.087454334    -1.088840479     6.027124701
 H       14.098013232    -0.677021241     4.617797568
 H       10.061895127    -1.649812370     5.673682632
 H        9.353403836    -1.745590245     4.044028062
 H       10.474218904    -3.014486703     4.602804792
 H       12.831830199    -0.844012222     1.716478187
 H       12.356673804    -2.515704616     2.108713565
 H       11.132110327    -1.354305781     1.544777826
 H       11.113427394    12.543484275     4.241148815
 H       10.447554179    13.850136286     5.259046766
 H       11.397270876    12.534910458     5.997955502
 H        7.433606501    11.555729811     7.319885280
 H        9.036235236    12.015066851     7.949943550
 H        8.003203016    13.236660294     7.164841998
 H       -5.094111847    12.327471505    -2.017297482
 H       -6.154408779    12.100403875    -0.601916472
 H       -5.630565022    13.737531749    -1.069412434
 H       -3.356926693    12.928499550     2.523092117
 H       -4.606563825    14.045238928     1.907616065
 H       -5.019565737    12.348896846     2.266878841
 H       -0.277658880    -0.362924615    -2.449220345
 H       -0.234773825    -1.916659134    -1.576976859
 H       -1.714926608    -0.925386247    -1.561618185
 H       -0.273417294    -0.364915637     2.449627929
 H       -1.726828939    -0.888970625     1.565650378
 H       -0.270138366    -1.916466028     1.571835125

