139   

Si        0.000000000     0.000000000     0.000000000
 C        1.869950001     0.000000000     0.000000000
 C       -0.599462513     1.744329256     0.000000000
 C       -0.096008838     2.656312986    -0.935421775
 C       -0.539572048     3.977768767    -0.947529321
 C       -1.490826909     4.418153605    -0.022974293
 C       -1.996012445     3.503237503     0.909351781
 C       -1.561313301     2.180203767     0.917800261
 C       -1.988095502     5.788177770     0.007702420
 C       -1.604433850     6.770060673    -0.825642993
 C       -2.121285083     8.133741057    -0.769813936
 C       -3.074251414     8.529717723     0.174354230
 C       -3.547702336     9.838850934     0.201683639
 C       -3.082576640    10.783099118    -0.722472481
 C       -2.133031328    10.389631980    -1.670194183
 C       -1.658612650     9.078934161    -1.693030583
Si       -3.744410373    12.502222618    -0.639650313
 C       -3.050307976    13.312291688     0.848874085
 C       -2.294420662    14.418628788     0.870545096
 C       -1.766661150    15.021254215     2.097300768
 C       -0.984751359    16.180025493     2.017354170
 C       -0.465720530    16.782089232     3.156715514
 C       -0.639993126    16.184530765     4.418574647
 C       -1.403487354    14.998984834     4.497287871
 C       -1.963162311    14.444572571     3.357908990
 N       -0.143992409    16.734890750     5.611306807
 C        0.478598709    18.062847073     5.611444658
 C        0.405687145    15.775562097     6.581689317
 C        1.853058156    18.197930380     4.934400134
 C        3.016019923    17.667922475     5.793874191
 N        4.194732116    17.238054461     5.002402565
 C        3.821584680    16.305613285     3.982416502
 C        3.430813862    15.022446203     4.404451250
 C        3.056935166    14.070323934     3.469217735
 C        3.058048529    14.370350050     2.098351693
 C        3.454702129    15.644480242     1.687551886
 C        3.843467370    16.605416884     2.614921567
 C        5.003839006    18.379664152     4.538137494
 C        2.654852670    13.330666891     1.149415833
 C        2.616827309    13.500549594    -0.178505958
Si        2.113550360    12.204577257    -1.371215899
 C        1.682103562    10.671572635    -0.443163521
 C        2.388708166     9.481331820    -0.645535226
 C        2.050749988     8.331341324     0.063324059
 C        1.016217123     8.350969498     1.007136413
 C        0.314911770     9.542802294     1.212038138
 C        0.638628478    10.691026053     0.490720387
 C        0.707609576     7.115969296     1.718470399
 C       -0.264119367     6.974396578     2.635381606
 C       -0.552016748     5.725485960     3.333149964
 C        0.172122831     4.552584479     3.101193058
 C       -0.131911285     3.377623342     3.787250429
 C       -1.177598948     3.347408921     4.715686773
 C       -1.911057570     4.518717759     4.943649314
 C       -1.603713463     5.691251956     4.257751693
Si       -1.585761776     1.795984172     5.627452951
 C       -0.081422780     0.688599202     5.714292352
 C       -2.148841178     2.203463454     7.362234995
 C       -2.951792301     0.915903906     4.702136450
 C        0.617212641    12.819552353    -2.303955969
 C        3.521236095    11.901627055    -2.561435376
 C       -3.310530630    13.445409919    -2.193653103
 C       -5.605860056    12.444454971    -0.468803731
 C       -0.642991834    -0.852738100    -1.532907592
 C       -0.608704154    -0.901247779     1.521430416
 H        0.652165699     2.370521173    -1.679180878
 H       -0.135681824     4.669359498    -1.684509532
 H       -2.731325020     3.828320828     1.644728819
 H       -1.994725644     1.513104930     1.667629335
 H       -2.725643976     5.983391520     0.793324211
 H       -0.861041880     6.588916383    -1.605631324
 H       -3.452797196     7.812261019     0.900452941
 H       -4.288388534    10.087870552     0.966605506
 H       -1.735679618    11.083972645    -2.415044184
 H       -0.912787753     8.793135426    -2.432467512
 H       -3.315946738    12.792796910     1.784330150
 H       -2.005626451    14.960858086    -0.038604679
 H       -0.788415957    16.633220544     1.045025190
 H        0.093932289    17.705557239     3.052709899
 H       -1.571915479    14.523666732     5.458850119
 H       -2.560482500    13.536324550     3.451830777
 H        0.898824019    16.299678068     7.415764983
 H        1.127833895    15.076179935     6.124468906
 H       -0.421667729    15.186966970     7.019582746
 H        5.397766965    18.910349896     5.422314784
 H        4.460012374    19.102508605     3.912037956
 H        5.874490798    18.002659524     3.973280575
 H        3.442907429    14.780310767     5.464796117
 H        2.755644658    13.076920622     3.804578198
 H        3.462935265    15.898499720     0.627404968
 H        4.147463144    17.587856054     2.266600142
 H        2.381421017    12.382857014     1.637371508
 H        2.894676886    14.458580706    -0.642725150
 H        3.213547331     9.409606460    -1.358795426
 H        2.601852291     7.410449612    -0.115983225
 H       -0.502065046     9.580025227     1.930889834
 H        0.043749340    11.591608877     0.682638906
 H        1.340796522     6.264597911     1.447256081
 H       -0.904191107     7.817003824     2.908446159
 H        0.983531453     4.545131664     2.374295368
 H        0.472497126     2.494495623     3.560979952
 H       -2.738564599     4.554250695     5.656585428
 H       -2.185150668     6.590933350     4.447916845
 H       -0.240887408    18.759807420     5.113798603
 H        0.543172258    18.404201156     6.670868627
 H        1.831789871    17.660867827     3.962118383
 H        2.032240061    19.257946724     4.678277389
 H        3.340929243    18.434667422     6.527818767
 H        2.696090669    16.785328281     6.390282817
 H        2.270530491    -1.028657705     0.012597094
 H        2.271563063     0.525805749     0.885077634
 H        2.275933043     0.502829695    -0.895052649
 H       -0.292238437    -0.225797277     6.296322900
 H        0.766412228     1.203298325     6.201526355
 H        0.253384709     0.371983802     4.710526979
 H       -1.385815070     2.793606509     7.901589260
 H       -3.083694681     2.790333009     7.362885313
 H       -2.334187054     1.286580214     7.949147953
 H       -2.624757380     0.616161958     3.690001128
 H       -3.271438114     0.002399335     5.233043156
 H       -3.839672727     1.562633174     4.585892221
 H       -0.195386659    13.081269708    -1.600245715
 H        0.850783386    13.721084749    -2.895640467
 H        0.234178439    12.051840234    -2.998738828
 H        4.437984410    11.588706729    -2.029328111
 H        3.270948813    11.113667939    -3.293057745
 H        3.769616206    12.814506816    -3.130988569
 H       -2.218389629    13.557012089    -2.317603723
 H       -3.698495440    12.932586394    -3.091917054
 H       -3.748446690    14.459563162    -2.177921312
 H       -5.918938406    11.924227614     0.452691981
 H       -6.032769693    13.462902875    -0.433256895
 H       -6.068024675    11.918421660    -1.323010561
 H       -0.296926292    -0.346419604    -2.451541023
 H       -0.305007381    -1.902415129    -1.582707397
 H       -1.747814824    -0.856155182    -1.556469990
 H       -0.282457180    -0.394791442     2.447770694
 H       -1.711052650    -0.964056722     1.543120997
 H       -0.219555163    -1.934169795     1.554735100

