139   

Si        0.000000000     0.000000000     0.000000000
 C        1.869504730     0.000000000     0.000000000
 C       -0.616141577     1.739901532     0.000000000
 C       -0.041118981     2.685725513     0.857070630
 C       -0.496609402     4.003197537     0.867486416
 C       -1.541594526     4.404813152     0.029980028
 C       -2.118292432     3.455859760    -0.823687187
 C       -1.662135844     2.139628882    -0.839645866
 C       -2.051314157     5.771930238     0.006400254
 C       -1.585577133     6.776104782     0.768531070
 C       -2.096881593     8.142764790     0.743330720
 C       -1.518181264     9.094901000     1.593162071
 C       -1.973109834    10.411134837     1.603692176
 C       -3.026495036    10.803218549     0.769047945
 C       -3.607436155     9.854529953    -0.079062941
 C       -3.144433838     8.539461530    -0.092623782
Si       -3.637631880    12.545954000     0.774960765
 C       -5.386557631    12.519470468     0.226234562
 C       -5.892748608    13.143817250    -0.844930313
 C       -7.306725435    13.081442380    -1.229433037
 C       -7.735611653    13.771144040    -2.368997374
 C       -9.066963490    13.739010096    -2.769424931
 C      -10.013341127    13.043002735    -2.007380401
 C       -9.590635399    12.352681356    -0.856930254
 C       -8.253883690    12.364690007    -0.487311696
 N      -11.400294578    12.948407234    -2.329498207
 C      -11.772679929    13.151162152    -3.738595150
 C      -12.266466491    13.669982699    -1.378744695
 C      -12.012777195    14.609600168    -4.171540200
 C      -11.981424378    14.736443474    -5.708724408
 N      -11.309942230    15.962047432    -6.200741627
 C       -9.962580325    16.056564285    -5.742705013
 C       -9.055191296    15.085345398    -6.207291827
 C       -7.731184534    15.120843415    -5.800058312
 C       -7.266669550    16.134739016    -4.948409980
 C       -8.168874553    17.105282394    -4.506645889
 C       -9.502922872    17.075183933    -4.898021532
 C      -12.134170944    17.167535649    -6.003697505
 C       -5.858367477    16.132360208    -4.543656238
 C       -5.321978367    17.055373100    -3.735587581
Si       -3.577977079    17.125136464    -3.182891792
 C       -3.614307456    17.013757738    -1.339842701
 C       -4.777364949    16.596750322    -0.680218461
 C       -4.808347768    16.511607958     0.709173824
 C       -3.680108992    16.840898461     1.471457446
 C       -2.519859369    17.253764125     0.809755686
 C       -2.484289251    17.336835402    -0.581782077
 C       -3.762326089    16.735511740     2.924289782
 C       -2.757593546    17.016140076     3.771395855
 C       -2.845803024    16.908822966     5.223916150
 C       -4.008330127    16.495553503     5.879407398
 C       -4.048934078    16.407003192     7.271042209
 C       -2.925661486    16.730169192     8.037694467
 C       -1.757692131    17.144396931     7.382532516
 C       -1.719885983    17.231445590     5.993727090
Si       -2.945838125    16.623806144     9.880692057
 C       -4.630949376    16.101939849    10.498091469
 C       -1.672138553    15.367614212    10.421159777
 C       -2.526943672    18.304896586    10.582089217
 C       -2.583531482    15.693396480    -3.848581875
 C       -2.837116401    18.747154587    -3.728894823
 C       -3.581235883    13.232749960     2.509331240
 C       -2.553745205    13.559125200    -0.351437490
 C       -0.607685164    -0.914166833    -1.513193600
 C       -0.634768195    -0.848275045     1.539691388
 H        0.776813414     2.431239633     1.536943964
 H       -0.029424818     4.720936385     1.539590338
 H       -2.932797396     3.746973550    -1.484563846
 H       -2.149628881     1.445200299    -1.529200450
 H       -2.871082239     5.941797913    -0.697976033
 H       -0.766150431     6.606960016     1.473263922
 H       -0.702424468     8.805587849     2.252694280
 H       -1.482286075    11.111169498     2.285665899
 H       -4.434429514    10.106483109    -0.751348482
 H       -3.611228998     7.819778380    -0.762612435
 H       -6.031902723    11.913885553     0.884868803
 H       -5.282640375    13.757384995    -1.520914496
 H       -7.018919937    14.344027482    -2.962324413
 H       -9.362200117    14.274838177    -3.670050627
 H      -10.316829778    11.791046303    -0.273035168
 H       -7.944277564    11.807973020     0.397731381
 H      -13.321555216    13.449358578    -1.610739498
 H      -12.120588554    14.761607793    -1.388096418
 H      -12.069238928    13.306364257    -0.355261510
 H      -13.072300786    17.046292321    -6.573410317
 H      -11.611955773    18.042943918    -6.427842058
 H      -12.390037747    17.378285504    -4.954227603
 H       -9.398807300    14.311572848    -6.890966037
 H       -7.041700762    14.355144403    -6.156868334
 H       -7.833520681    17.901796671    -3.840321334
 H      -10.180703782    17.839616203    -4.529459942
 H       -5.281627954    15.300778216    -4.967833473
 H       -5.933369528    17.882623280    -3.335424851
 H       -5.690048180    16.322157914    -1.221847153
 H       -5.721004594    16.179640742     1.203323445
 H       -1.629862493    17.513512040     1.379689929
 H       -1.549364674    17.664914746    -1.043361324
 H       -4.736269333    16.410467753     3.304500594
 H       -1.786109229    17.348655578     3.394470377
 H       -4.897463447    16.237807668     5.306390901
 H       -4.986747416    16.077627378     7.726898738
 H       -0.848748799    17.409740131     7.929988508
 H       -0.804048680    17.555235915     5.502555225
 H      -10.987456049    12.679440711    -4.373882660
 H      -12.701617000    12.555287496    -3.904864987
 H      -12.976461779    14.973641379    -3.776470094
 H      -11.245875652    15.264610632    -3.712512879
 H      -11.455249685    13.867572194    -6.166854234
 H      -13.012757538    14.715125335    -6.121585497
 H        2.269994037    -1.028669291    -0.029052629
 H        2.278358337     0.490317552     0.900752570
 H        2.268318576     0.537512573    -0.879590812
 H       -4.664390788    16.091291000    11.602398553
 H       -4.893463548    15.086789323    10.150728823
 H       -5.421274636    16.791503950    10.151538980
 H       -1.899281433    14.366442706    10.011800373
 H       -0.659641557    15.642396860    10.076247423
 H       -1.637305520    15.277548904    11.521188805
 H       -3.256034654    19.067649248    10.253019966
 H       -2.532301110    18.293132443    11.686205285
 H       -1.527328359    18.643196122    10.256781615
 H       -2.998926089    14.723056514    -3.517607136
 H       -2.566111526    15.692493355    -4.952944378
 H       -1.535532304    15.736632591    -3.501248311
 H       -3.385378293    19.606986226    -3.302592519
 H       -1.782572678    18.838824853    -3.414376718
 H       -2.865572520    18.850642453    -4.828940662
 H       -4.136440453    12.596444768     3.220461937
 H       -2.543981243    13.321692268     2.878292837
 H       -4.026684534    14.244648738     2.545668364
 H       -2.630859493    13.228745388    -1.401983368
 H       -2.836362270    14.630141692    -0.312618046
 H       -1.491275867    13.489979649    -0.058633852
 H       -0.300363676    -0.401935502    -2.442673353
 H       -0.198342675    -1.939542099    -1.549976618
 H       -1.708587881    -0.998916803    -1.524285742
 H       -0.286623815    -0.336059952     2.454431651
 H       -1.739449580    -0.855248257     1.567077144
 H       -0.292693320    -1.896644611     1.592126330

