139   

Si        0.000000000     0.000000000     0.000000000
 C        1.869457830     0.000000000     0.000000000
 C       -0.643681791     1.730133064     0.000000000
 C        0.117573144     2.780942297     0.522489788
 C       -0.375314859     4.085297716     0.519037380
 C       -1.641571900     4.368875522    -0.000094845
 C       -2.404755577     3.314762859    -0.518743762
 C       -1.914334187     2.011502659    -0.518140215
 C       -2.197913219     5.717190925    -0.024612567
 C       -1.566859850     6.809056392     0.439245229
 C       -2.118839058     8.159145556     0.416973433
 C       -3.384233045     8.447060202    -0.101051372
 C       -3.871725425     9.753897491    -0.101677845
 C       -3.105368521    10.793677255     0.431498451
 C       -1.838270008    10.508412615     0.957274933
 C       -1.351472251     9.204796751     0.947335462
Si       -3.719420679    12.531856646     0.446544995
 C       -2.244238424    13.595901825     0.232951446
 C       -1.816864446    14.524061676     1.098529584
 C       -0.628894443    15.351921432     0.883103623
 C       -0.269721509    16.295508204     1.855238196
 C        0.846640991    17.100475040     1.693205773
 C        1.685373431    16.943138205     0.569393534
 C        1.329689053    15.990590624    -0.402547462
 C        0.178780192    15.228241571    -0.250672606
 N        2.818417032    17.770565520     0.418657081
 C        3.508602951    18.161260030     1.662620091
 C        3.759205948    17.412485596    -0.656876248
 C        4.045438286    16.968684673     2.477332949
 C        3.824604829    17.205090561     3.981841817
 N        4.299884466    16.114342795     4.840190553
 C        3.558250503    14.922572863     4.911674753
 C        2.306036532    14.768609987     4.285039198
 C        1.612229432    13.570340638     4.385435736
 C        2.108883988    12.504907446     5.147949928
 C        3.340183589    12.670793843     5.791307684
 C        4.056823646    13.852563848     5.683676972
 C        5.766153250    15.976359021     4.856681532
 C        1.347326034    11.256002413     5.229352868
 C        1.746983405    10.188871712     5.933959388
Si        0.878316789     8.586414519     6.103993602
 C       -0.704764998     8.550492736     5.162452931
 C       -1.618275115     9.602424580     5.301963323
 C       -2.820755208     9.592487750     4.597829821
 C       -3.156126126     8.511259565     3.778346607
 C       -2.247787111     7.452792802     3.652802034
 C       -1.031580706     7.473811498     4.330665851
 C       -4.401727092     8.455008386     3.022409717
 C       -5.358129391     9.398166960     3.049142191
 C       -6.600263697     9.329624205     2.287646574
 C       -6.906675801     8.254491359     1.448396908
 C       -8.104762414     8.225209217     0.736576047
 C       -9.023838739     9.274307565     0.846374273
 C       -8.718888340    10.352969627     1.685618820
 C       -7.521842649    10.378735567     2.397055135
Si      -10.609681862     9.235204133    -0.096035587
 C      -11.175302600     7.468076370    -0.324814634
 C      -11.931483338    10.180300221     0.828384748
 C      -10.314388985    10.026784625    -1.763576929
 C        2.030695663     7.247512344     5.488643608
 C        0.486604915     8.306291776     7.909959842
 C       -4.909527365    12.830195276    -0.959324808
 C       -4.573220177    12.852512646     2.075583382
 C       -0.602464855    -0.900400272    -1.523823253
 C       -0.630253494    -0.859464124     1.534998270
 H        1.114536609     2.621103957     0.942285961
 H        0.239878362     4.885688082     0.927431498
 H       -3.393388996     3.513315435    -0.928224169
 H       -2.555363473     1.231080166    -0.937280237
 H       -3.197509815     5.793139514    -0.461378978
 H       -0.564792644     6.733044273     0.873087219
 H       -3.999580474     7.652358441    -0.517314616
 H       -4.868445668     9.921372327    -0.519953840
 H       -1.197672138    11.285239770     1.389059294
 H       -0.367137165     8.998283862     1.365694799
 H       -1.705643873    13.408720137    -0.710757238
 H       -2.329628551    14.735929817     2.045438485
 H       -0.885348740    16.412749950     2.747835190
 H        1.071150061    17.853216092     2.443329329
 H        1.942547153    15.839835428    -1.285452510
 H       -0.081000863    14.506859101    -1.027557388
 H        4.591473569    18.135521199    -0.681957684
 H        3.243717802    17.490214078    -1.631354005
 H        4.181632566    16.399763929    -0.553292150
 H        6.249386417    16.946746723     4.659374805
 H        6.137406795    15.246067042     4.118934170
 H        6.089793643    15.656498922     5.864069810
 H        1.878301417    15.571760907     3.688941405
 H        0.660385650    13.463510657     3.860767726
 H        3.752143763    11.859466130     6.393319008
 H        5.003801806    13.946504838     6.205608054
 H        0.417329004    11.271649837     4.644280870
 H        2.692705954    10.213039311     6.501372746
 H       -1.421313112    10.461927657     5.950174856
 H       -3.504020135    10.433570866     4.697255000
 H       -2.489404934     6.605842387     3.010305260
 H       -0.357881508     6.625387743     4.184308995
 H       -4.514402864     7.563124167     2.396728561
 H       -5.244308049    10.291423304     3.668650796
 H       -6.207224201     7.426036331     1.345826212
 H       -8.289740575     7.355852745     0.099917492
 H       -9.399634167    11.198819119     1.813123725
 H       -7.307785805    11.222098337     3.050807911
 H        4.337798716    18.855344920     1.400989648
 H        2.798788926    18.774232550     2.265275149
 H        3.541426830    16.028598047     2.172215104
 H        5.114516633    16.801949639     2.262774012
 H        4.344065816    18.137857955     4.303816430
 H        2.742532976    17.373477466     4.195559254
 H        2.267787632    -1.028828397    -0.055428119
 H        2.279526078     0.463227693     0.914411714
 H        2.269502298     0.557744137    -0.866106085
 H      -12.153279036     7.425442643    -0.836361952
 H      -11.286714956     6.955186096     0.647770498
 H      -10.460824422     6.883477549    -0.929952029
 H      -12.063532085     9.784644377     1.851768727
 H      -11.684205912    11.252750993     0.914561678
 H      -12.906948468    10.106766271     0.315572542
 H       -9.537320942     9.486246393    -2.333133670
 H      -11.233869014    10.031919609    -2.374592448
 H       -9.977434449    11.073565298    -1.657579925
 H        2.228081216     7.356882905     4.406594949
 H        3.004345271     7.287546357     6.007757479
 H        1.608553883     6.241087900     5.655303059
 H       -0.179034151     9.096264011     8.302587663
 H       -0.024591815     7.338784479     8.061666056
 H        1.401173534     8.303344671     8.527799430
 H       -4.462124591    12.565365716    -1.933946567
 H       -5.829061907    12.228666880    -0.838543932
 H       -5.211999562    13.891503545    -1.010646109
 H       -3.899477507    12.654586155     2.928593510
 H       -4.922117513    13.896766080     2.151369106
 H       -5.456086759    12.195366464     2.186455468
 H       -0.308780294    -0.365663393    -2.445392084
 H       -0.177347133    -1.918238826    -1.580675472
 H       -1.701784385    -1.000657844    -1.533013233
 H       -0.284198474    -0.348768648     2.451701322
 H       -1.734631850    -0.872816639     1.563556464
 H       -0.281637368    -1.905961310     1.583111711

