139   

Si        0.000000000     0.000000000     0.000000000
 C        1.869460158     0.000000000     0.000000000
 C       -0.629491320     1.735544114     0.000000000
 C        0.049046478     2.734190082    -0.707581937
 C       -0.421914326     4.046482318    -0.710991344
 C       -1.584625806     4.390220078    -0.015347429
 C       -2.265399976     3.388210381     0.688204400
 C       -1.795620069     2.076958953     0.695777893
 C       -2.114733893     5.749626948     0.009427638
 C       -1.558345078     6.799354892    -0.618644817
 C       -2.088694681     8.158757195    -0.593706784
 C       -3.251771121     8.500954707     0.102556165
 C       -3.723774778     9.812781045     0.099958908
 C       -3.036343138    10.813219437    -0.595605983
 C       -1.871223110    10.474449235    -1.293889010
 C       -1.406123196     9.161538226    -1.294410601
Si       -3.661878970    12.549541647    -0.598516715
 C       -2.297555625    13.660313672    -1.107288951
 C       -2.310960342    14.466574875    -2.177093000
 C       -1.203595545    15.344267614    -2.558640446
 C       -1.334830504    16.144698826    -3.703012653
 C       -0.317155812    16.992059800    -4.107262307
 C        0.903201017    17.033965288    -3.395588085
 C        1.036434729    16.229541678    -2.246715454
 C       -0.011836858    15.418854555    -1.832286218
 N        1.920705986    17.897262150    -3.819514711
 C        2.083582446    18.114776055    -5.265654919
 C        3.173993963    17.903392587    -3.054880569
 C        2.197267189    16.837155951    -6.117926010
 C        3.577617110    16.158478677    -6.067995964
 N        4.691118026    16.894980447    -6.698641138
 C        5.325362605    17.855851229    -5.871921661
 C        5.955565281    17.387000204    -4.701145122
 C        6.593386116    18.274752037    -3.850492544
 C        6.655602980    19.644457684    -4.150181107
 C        6.055303494    20.098521615    -5.326934100
 C        5.407829785    19.219954622    -6.188931105
 C        4.413358094    17.313280618    -8.080985431
 C        7.342581376    20.540048753    -3.215900560
 C        7.464687751    21.861320558    -3.396410779
Si        8.314265165    23.018024553    -2.255652541
 C        9.693161680    23.827606654    -3.175243452
 C       10.230244669    23.227123777    -4.320367489
 C       11.271395187    23.838864586    -5.014321541
 C       11.805092122    25.058534000    -4.577752896
 C       11.269011128    25.652494357    -3.431364134
 C       10.224642582    25.044583893    -2.735844984
 C       12.895430350    25.659803261    -5.338919378
 C       13.492632502    26.823740917    -5.031393936
 C       14.582974537    27.424226125    -5.793245448
 C       15.118699958    26.830191616    -6.939280150
 C       16.161084059    27.439440699    -7.637089895
 C       16.685831397    28.663397303    -7.208335532
 C       16.149801604    29.261218445    -6.060721074
 C       15.113995437    28.646794192    -5.361381181
Si       18.066051316    29.472556411    -8.130218863
 C       17.995677132    28.998317257    -9.937210092
 C       17.925670716    31.331312096    -7.987128442
 C       19.682629080    28.900033763    -7.388566772
 C        7.069464259    24.295057955    -1.700115615
 C        9.024191210    22.130847789    -0.774805982
 C       -5.112313941    12.655492247    -1.769741247
 C       -4.195197298    13.038937481     1.124235524
 C       -0.632747151    -0.852781318    -1.537680325
 C       -0.605102234    -0.907914748     1.518179046
 H        0.962538264     2.526778371    -1.271851489
 H        0.126976190     4.805556929    -1.265618795
 H       -3.173078253     3.633838983     1.236558145
 H       -2.368643234     1.339177462     1.264062864
 H       -3.031541040     5.872139076     0.593711130
 H       -0.641892586     6.676921638    -1.203509464
 H       -3.801252827     7.740445256     0.654151827
 H       -4.639419846    10.019662937     0.660615743
 H       -1.295839359    11.217527360    -1.856213225
 H       -0.500164604     8.915687840    -1.845302191
 H       -1.424857250    13.621287364    -0.435611007
 H       -3.167395574    14.529335992    -2.861591089
 H       -2.259626385    16.111549626    -4.279954290
 H       -0.463671351    17.628563557    -4.974672195
 H        1.955682892    16.233814117    -1.670232430
 H        0.111677682    14.816938377    -0.930231596
 H        3.856143595    18.677784682    -3.453135035
 H        3.708399719    16.939786819    -3.071612080
 H        2.959761108    18.179213975    -2.005861550
 H        4.068507688    16.436503860    -8.656798953
 H        5.353111206    17.658995124    -8.548389437
 H        3.659644861    18.110531502    -8.174920676
 H        5.947858137    16.321879221    -4.477665120
 H        7.069583931    17.898369981    -2.944492312
 H        6.093579865    21.158351287    -5.584338421
 H        4.954967593    19.605741901    -7.097465879
 H        7.756305922    20.019272133    -2.342319268
 H        7.037469943    22.356365890    -4.284100207
 H        9.855111773    22.273219375    -4.705788647
 H       11.674177965    23.359786438    -5.905027474
 H       11.665689790    26.600034720    -3.071248372
 H        9.845149476    25.557341487    -1.847789992
 H       13.214162874    25.084313830    -6.213176676
 H       13.174393926    27.399559428    -4.157260989
 H       14.724844890    25.880578104    -7.297290244
 H       16.539526887    26.924891989    -8.524740899
 H       16.518800910    30.217140590    -5.678733261
 H       14.712210279    29.126339973    -4.470586432
 H        1.205774702    18.712619942    -5.611470800
 H        2.970893166    18.767876034    -5.432312537
 H        1.433734446    16.100977159    -5.788055814
 H        1.930998974    17.077045883    -7.164253951
 H        3.843116121    15.930633319    -5.011657930
 H        3.517685756    15.172379859    -6.589022325
 H        2.268708364    -1.027901205     0.062673960
 H        2.268930109     0.564788063     0.861975122
 H        2.279405816     0.458409498    -0.916833025
 H       18.770735191    29.528001141   -10.519351200
 H       17.015850303    29.253993514   -10.379731208
 H       18.156025190    27.915844773   -10.083549509
 H       16.940439315    31.685792737    -8.340713662
 H       18.048667983    31.673024008    -6.944594189
 H       18.697518153    31.837857410    -8.593585071
 H       19.790552676    27.802557748    -7.457893011
 H       20.546095116    29.354247565    -7.905572094
 H       19.752803127    29.169969797    -6.319462350
 H        6.693580405    24.889070370    -2.552933422
 H        6.196485901    23.817664594    -1.218789512
 H        7.506739621    24.999421104    -0.970901044
 H        9.759889127    21.364068055    -1.079538009
 H        9.544901631    22.832712569    -0.098396231
 H        8.235038827    21.627211487    -0.188857533
 H       -4.819529647    12.375270423    -2.798072390
 H       -5.926196548    11.974199855    -1.463646848
 H       -5.528430749    13.678004788    -1.804614673
 H       -3.371808629    12.914419068     1.850694036
 H       -4.508569119    14.098296858     1.157245390
 H       -5.045094381    12.428951869     1.476043595
 H       -0.288277859    -0.339482599    -2.453364933
 H       -0.285144730    -1.899421530    -1.589877105
 H       -1.737320795    -0.865471293    -1.564115784
 H       -0.313925037    -0.378814058     2.443626426
 H       -1.704339844    -1.010698310     1.523032699
 H       -0.179024088    -1.925731842     1.570343581

