139   

Si        0.000000000     0.000000000     0.000000000
 C        1.869479721     0.000000000     0.000000000
 C       -0.631270797     1.734657106     0.000000000
 C        0.067375463     2.743464916     0.672486276
 C       -0.406520564     4.054763581     0.674573290
 C       -1.589827496     4.386864656     0.009584212
 C       -2.290411884     3.374941948    -0.660016955
 C       -1.819110826     2.064680013    -0.664072145
 C       -2.124883521     5.742901538    -0.016418227
 C       -1.558940934     6.806227917     0.580023960
 C       -2.115808908     8.154470860     0.538593914
 C       -1.444921849     9.194209174     1.195348307
 C       -1.949932377    10.493042458     1.175121085
 C       -3.142133908    10.775602702     0.499999268
 C       -3.811724785     9.738408582    -0.158871367
 C       -3.300547397     8.443386900    -0.143943943
Si       -3.851439188    12.478521337     0.444242455
 C       -5.614698300    12.238264997     0.000903063
 C       -6.230143601    12.731977733    -1.080668038
 C       -7.644864662    12.507066048    -1.384789082
 C       -8.187390259    13.072785935    -2.547631686
 C       -9.520163181    12.887918323    -2.877488983
 C      -10.338559474    12.053733226    -2.087887087
 C       -9.794256183    11.475389018    -0.929656700
 C       -8.473746097    11.725364700    -0.575494924
 N      -11.694558963    11.892039636    -2.459832345
 C      -11.928534669    11.528243529    -3.873050406
 C      -12.533060402    11.108168898    -1.535887266
 C      -11.337805200    10.169152240    -4.293981016
 C      -10.018939731    10.341983487    -5.073459232
 N       -9.236774184     9.098082526    -5.213312733
 C       -8.722020040     8.590649273    -3.990383693
 C       -7.889397720     9.433469968    -3.227990769
 C       -7.359659870     8.991238005    -2.027905324
 C       -7.588367694     7.682328329    -1.575278080
 C       -8.389899872     6.841727433    -2.348935175
 C       -8.953573937     7.282176140    -3.542794236
 C       -9.886167848     8.117916300    -6.099716168
 C       -7.003668400     7.267831526    -0.298329210
 C       -7.148192035     6.049957197     0.240603779
Si       -6.423993044     5.512013139     1.838104725
 C       -5.470488488     6.902818839     2.582826640
 C       -4.135653005     6.758704171     2.967306869
 C       -3.442715236     7.832092467     3.528232945
 C       -4.069065600     9.066460849     3.714816267
 C       -5.410360500     9.207245914     3.333986057
 C       -6.105813146     8.137427029     2.780155437
 C       -3.384017078    10.214971966     4.296835843
 C       -2.103403961    10.216534231     4.703613633
 C       -1.423273425    11.368557634     5.285188198
 C       -2.056511011    12.600078872     5.475332089
 C       -1.369209971    13.676168488     6.035070458
 C       -0.030371784    13.543805405     6.419253049
 C        0.607048908    12.311858736     6.226646082
 C       -0.080518773    11.239822999     5.663120325
Si        0.878180187    14.969724754     7.160262908
 C       -0.300829739    16.033495903     8.147062666
 C        2.230680891    14.352432360     8.293704724
 C        1.625618730    15.973225667     5.772156875
 C       -7.801827037     5.025553931     3.001853758
 C       -5.308615368     4.047775968     1.521618203
 C       -3.756818892    13.295488015     2.119834777
 C       -2.928898395    13.489006779    -0.822658790
 C       -0.604752303    -0.906820592    -1.518871213
 C       -0.633134866    -0.853414119     1.537480646
 H        0.998990122     2.544814315     1.209112833
 H        0.157228150     4.822344194     1.201624632
 H       -3.212845634     3.613669533    -1.188198219
 H       -2.406908316     1.318269913    -1.205104432
 H       -3.058309525     5.853908508    -0.579745980
 H       -0.626225087     6.707363978     1.140304415
 H       -0.519096138     8.989878265     1.728393443
 H       -1.388250245    11.263827734     1.709973273
 H       -4.744297231     9.901744598    -0.710217113
 H       -3.842493665     7.653872495    -0.664543906
 H       -6.164046587    11.627626591     0.737547702
 H       -5.715290897    13.346413888    -1.829623288
 H       -7.559192832    13.687771488    -3.192525019
 H       -9.936655086    13.389000917    -3.747456963
 H      -10.389502716    10.819642683    -0.301299352
 H       -8.081344026    11.280330131     0.340877250
 H      -13.583349842    11.153148097    -1.870871625
 H      -12.497187410    11.570645366    -0.532970946
 H      -12.240779942    10.049038052    -1.451345493
 H      -10.100125556     8.600582017    -7.069038472
 H      -10.824539792     7.700061283    -5.704405415
 H       -9.183475022     7.289465388    -6.300752471
 H       -7.672779939    10.442877497    -3.576331067
 H       -6.744508396     9.674640170    -1.437130784
 H       -8.586402138     5.821433635    -2.019952230
 H       -9.582269217     6.603467521    -4.109642381
 H       -6.410204850     8.062596126     0.179992661
 H       -7.737050847     5.269939308    -0.264880702
 H       -3.588266984     5.820661375     2.834423197
 H       -2.400744202     7.698792522     3.812862164
 H       -5.912896007    10.162750212     3.469437364
 H       -7.153476848     8.301327458     2.508650309
 H       -3.999928824    11.114465286     4.390575585
 H       -1.487887168     9.317691829     4.610196770
 H       -3.098703745    12.728487765     5.187654096
 H       -1.918727072    14.613147789     6.160466829
 H        1.650878282    12.149585593     6.508570068
 H        0.432490498    10.290545021     5.520380738
 H      -13.029506199    11.533540051    -4.042691759
 H      -11.530073172    12.346970965    -4.513465452
 H      -11.158046938     9.537372892    -3.401290804
 H      -12.067290610     9.610471580    -4.905536271
 H      -10.220509218    10.737337255    -6.093133416
 H       -9.372548646    11.098493012    -4.569424516
 H        2.268451905    -1.028894504    -0.047087830
 H        2.280208028     0.472163943     0.909409842
 H        2.268554356     0.551296772    -0.870859847
 H        0.232345131    16.860434763     8.649035168
 H       -0.810975743    15.443417866     8.929974872
 H       -1.080381125    16.483232516     7.507774801
 H        1.824257909    13.683999039     9.074270841
 H        3.003254419    13.789784504     7.741175376
 H        2.735970607    15.190773805     8.805657132
 H        0.847217633    16.356365797     5.088196173
 H        2.187030725    16.841300780     6.160006703
 H        2.323516348    15.366064773     5.168079091
 H       -8.491182304     5.868515783     3.186546550
 H       -8.398573788     4.189723928     2.597824741
 H       -7.400972129     4.707244142     3.981171782
 H       -4.430348587     4.330813002     0.909568632
 H       -4.924780490     3.622324900     2.466218585
 H       -5.837988881     3.240762528     0.986175724
 H       -4.346681999    12.742473384     2.871786721
 H       -2.714064352    13.343420022     2.484714331
 H       -4.145569622    14.328600462     2.085119864
 H       -2.965026709    13.015303449    -1.820829082
 H       -3.350708899    14.504800198    -0.917318801
 H       -1.863176024    13.595324161    -0.550030999
 H       -0.316174558    -0.375274888    -2.443806589
 H       -0.176296891    -1.923488615    -1.573277978
 H       -1.703758791    -1.011653491    -1.522702498
 H       -0.287308266    -0.341390285     2.453268202
 H       -1.737541770    -0.865050688     1.564284916
 H       -0.286309682    -1.900381203     1.588596034

