139   

Si        0.000000000     0.000000000     0.000000000
 C        1.868866431     0.000000000     0.000000000
 C       -0.577948449     1.753461706     0.000000000
 C       -0.368388545     2.552471757     1.130624194
 C       -0.796945600     3.878586195     1.151031391
 C       -1.436533731     4.439999144     0.041631909
 C       -1.642044252     3.640124329    -1.089393284
 C       -1.218983688     2.312729576    -1.110989227
 C       -1.901827713     5.822919006     0.018062493
 C       -1.771195200     6.691475087     1.035173483
 C       -2.236630690     8.074212665     1.011112187
 C       -2.035034333     8.872527496     2.144920917
 C       -2.462219815    10.197778364     2.167980833
 C       -3.093994201    10.757800771     1.051251622
 C       -3.293980487     9.964333772    -0.083176975
 C       -2.870386445     8.636188679    -0.100814726
Si       -3.663446631    12.513331887     1.072889061
 C       -5.120248929    12.615141850    -0.030626773
 C       -5.250209677    13.371152598    -1.128333312
 C       -6.459367432    13.388782649    -1.954795731
 C       -6.508702079    14.211622138    -3.088372250
 C       -7.635399104    14.254924255    -3.894425872
 C       -8.769030684    13.473899470    -3.582543487
 C       -8.704510241    12.619377042    -2.468833822
 C       -7.549854833    12.552106726    -1.700594919
 N       -9.906547158    13.532610387    -4.416754298
 C      -10.256773391    14.874464923    -4.932430260
 C      -11.081191784    12.765000175    -3.966240885
 C      -10.303776152    15.999058954    -3.880771613
 C      -11.648163791    16.082627180    -3.131258519
 N      -11.538924726    16.397900356    -1.687754152
 C      -11.027099862    15.290015869    -0.934846840
 C      -11.953390438    14.289554005    -0.596696054
 C      -11.541743554    13.182861752     0.130879456
 C      -10.201461106    13.031931463     0.516306244
 C       -9.292684699    14.043402938     0.191004974
 C       -9.701877962    15.179345800    -0.500694172
 C      -10.854087221    17.677373992    -1.430343695
 C       -9.819021516    11.842873890     1.284693794
 C       -8.573513396    11.591146315     1.706909280
Si       -8.044602622    10.121152074     2.669348504
 C       -7.353060996    10.747743781     4.259343922
 C       -8.070079822    11.675519028     5.024857138
 C       -7.548084448    12.149040029     6.225875377
 C       -6.297288642    11.714802217     6.685586030
 C       -5.582875535    10.792817871     5.915872298
 C       -6.103733946    10.314164457     4.714336250
 C       -5.791826038    12.239232535     7.950148815
 C       -4.612696917    11.900806007     8.498956370
 C       -4.102845829    12.422211491     9.762847752
 C       -4.810938209    13.344711011    10.539084473
 C       -4.285207868    13.816323688    11.740821565
 C       -3.034491177    13.377735720    12.192344982
 C       -2.323999214    12.454709155    11.416896930
 C       -2.853487964    11.982257529    10.217922708
Si       -2.361912943    14.018662218    13.787730016
 C       -2.433672015    15.886511945    13.771798143
 C       -3.409048446    13.350165726    15.183625201
 C       -0.588893764    13.476313490    14.024836127
 C       -9.482991888     8.992080553     3.048350415
 C       -6.771251930     9.182500490     1.680595716
 C       -4.205763906    13.001098583     2.791719689
 C       -2.269679395    13.613547305     0.500889583
 C       -0.622619734    -0.903813493    -1.512885547
 C       -0.643677331    -0.855918000     1.531817122
 H        0.129000787     2.170912098     2.026868214
 H       -0.626092989     4.477914997     2.043583289
 H       -2.138328927     4.056854699    -1.964082111
 H       -1.409160084     1.737171909    -2.020946327
 H       -2.384367257     6.127002014    -0.915754115
 H       -1.287600131     6.387531240     1.968132435
 H       -1.542121763     8.453529697     3.019893742
 H       -2.285011149    10.771109313     3.082494114
 H       -3.785522639    10.350785185    -0.982672310
 H       -3.038224686     8.037569253    -0.994280094
 H       -5.941304948    11.952012704     0.292525180
 H       -4.461817814    14.041940550    -1.489176073
 H       -5.650868826    14.835073792    -3.340574705
 H       -7.637776979    14.886812873    -4.777827679
 H       -9.549642713    11.994929184    -2.191756897
 H       -7.518912974    11.846074874    -0.866580009
 H      -11.900880956    12.873218854    -4.694765763
 H      -11.452390800    13.064201044    -2.970273553
 H      -10.818477201    11.691489708    -3.938025463
 H      -11.450725168    18.487432377    -1.884367470
 H       -9.827695504    17.741209809    -1.821563145
 H      -10.826394609    17.859130176    -0.341464220
 H      -12.993427059    14.402429606    -0.897056853
 H      -12.271715555    12.420822538     0.401810918
 H       -8.245910604    13.960796385     0.494210037
 H       -8.977459284    15.957501847    -0.726526027
 H      -10.659904756    11.164142790     1.475644921
 H       -7.753180172    12.303140325     1.508721343
 H       -9.046697119    12.056397838     4.710077956
 H       -8.118967816    12.867859318     6.810783259
 H       -4.609086304    10.439457905     6.249967414
 H       -5.497154882     9.595400907     4.153871178
 H       -6.454427692    12.953224147     8.447956289
 H       -3.951501720    11.185554243     8.000546908
 H       -5.784460662    13.702626667    10.208533136
 H       -4.886545139    14.535045381    12.304912070
 H       -1.343449554    12.076942271    11.719128162
 H       -2.286063586    11.263164334     9.630056994
 H       -9.497653555    15.127263378    -5.711340577
 H      -11.225729685    14.809036425    -5.473063980
 H       -9.477641155    15.855994411    -3.152480866
 H      -10.089261949    16.966003376    -4.370864412
 H      -12.293969190    16.865598581    -3.587275081
 H      -12.209729314    15.127080630    -3.225534663
 H        2.272166654    -1.027804914     0.003915338
 H        2.273116858     0.521541739     0.885805241
 H        2.268471772     0.512099119    -0.894200128
 H       -2.007880734    16.312703586    14.697282095
 H       -3.471230365    16.253585591    13.682868984
 H       -1.862564628    16.300565863    12.920902028
 H       -4.465996449    13.652854910    15.077262073
 H       -3.384384256    12.245531088    15.208941548
 H       -3.053748161    13.714360380    16.163592150
 H        0.052902859    13.822224236    13.194800348
 H       -0.168678634    13.887255670    14.960346067
 H       -0.503415025    12.376684665    14.080950845
 H      -10.268879072     9.513612484     3.623038674
 H       -9.944785224     8.600033262     2.125166159
 H       -9.160119577     8.123809627     3.651208405
 H       -5.833893008     9.753104376     1.548334693
 H       -6.501228548     8.229978688     2.171747369
 H       -7.148173621     8.935737926     0.670971681
 H       -4.908615764    12.264026897     3.226211207
 H       -3.349514127    13.083698305     3.483360018
 H       -4.723044627    13.977966768     2.788489701
 H       -1.937872125    13.348141210    -0.519145326
 H       -2.572855835    14.675563393     0.489544425
 H       -1.390371795    13.526354709     1.163983569
 H       -0.234007584    -0.455125329    -2.444232382
 H       -0.307772074    -1.962757507    -1.501456607
 H       -1.725975067    -0.888198878    -1.566511322
 H       -0.276962373    -0.372011163     2.454073508
 H       -1.748297405    -0.836115394     1.565287831
 H       -0.328819108    -1.913901206     1.563036430

