139   

Si        0.000000000     0.000000000     0.000000000
 C        1.869507258     0.000000000     0.000000000
 C       -0.648360131     1.728709554     0.000000000
 C        0.171784934     2.812241193    -0.329362778
 C       -0.333532128     4.112268185    -0.324600028
 C       -1.668548298     4.358982375     0.006053425
 C       -2.490066065     3.271503953     0.332281268
 C       -1.988810941     1.972586895     0.327618003
 C       -2.240048028     5.701610742     0.024177898
 C       -1.562405648     6.824587979    -0.268198826
 C       -2.132147767     8.168042476    -0.250624509
 C       -3.467609950     8.416396717     0.079983999
 C       -3.970433735     9.716955954     0.084030143
 C       -3.143580395    10.798573997    -0.237349701
 C       -1.805597748    10.553769639    -0.569284034
 C       -1.308444599     9.252827225    -0.578532612
Si       -3.805012518    12.521637648    -0.233225676
 C       -2.392615494    13.679056529    -0.091391458
 C       -2.067801655    14.621948381    -0.985794118
 C       -0.930867792    15.532626185    -0.842845196
 C       -0.689684041    16.481394048    -1.847576826
 C        0.372262871    17.365521997    -1.759966742
 C        1.216049945    17.358857431    -0.626183376
 C        0.975399378    16.405825390     0.382740958
 C       -0.068520377    15.499131445     0.256527815
 N        2.284525585    18.261435442    -0.557564334
 C        2.082607167    19.611663785    -1.106552427
 C        3.151171120    18.205407711     0.626097605
 C        0.824065842    20.347698085    -0.610419818
 C        0.949262252    20.946571717     0.801917162
 N        1.901032646    22.064890564     0.957782637
 C        3.246886921    21.682698716     1.187402782
 C        3.517785593    20.941093453     2.355630581
 C        4.811486102    20.536567501     2.639054656
 C        5.878064808    20.886290250     1.795902514
 C        5.608292539    21.647382171     0.656593910
 C        4.312863710    22.055166286     0.355158375
 C        1.693429778    23.152844566    -0.009831725
 C        7.225618942    20.430984745     2.144616833
 C        8.323128692    20.697325500     1.424413467
Si       10.009092169    20.126997438     1.861775322
 C        9.934217684    19.148801685     3.423975997
 C        9.751856122    19.805203602     4.648722450
 C        9.693333377    19.080534155     5.835880247
 C        9.804293104    17.683359707     5.829899671
 C        9.979948023    17.031606060     4.606482122
 C       10.043670249    17.755189791     3.415623492
 C        9.736956173    16.967935347     7.099951601
 C        9.834008957    15.634188946     7.231990529
 C        9.766828283    14.917569742     8.501464575
 C        9.591192273    15.567556494     9.726158508
 C        9.532662999    14.842386017    10.915833672
 C        9.638036009    13.447555209    10.906002567
 C        9.812315409    12.793809076     9.679646882
 C        9.879119027    13.520981144     8.493876160
Si        9.561279135    12.481598701    12.477976685
 C        8.568579755    13.413453352    13.759057482
 C        8.746572809    10.827789079    12.168504448
 C       11.306127817    12.223538819    13.094389173
 C       10.665418781    19.085002486     0.456923552
 C       11.114542212    21.613322576     2.103440842
 C       -4.767106189    12.791421126    -1.810641346
 C       -4.917675718    12.779279061     1.245891262
 C       -0.627386799    -0.866601978    -1.531896087
 C       -0.606139630    -0.887799231     1.529547492
 H        1.224329785     2.683096556    -0.595840679
 H        0.326659346     4.938246353    -0.583819106
 H       -3.533397188     3.441521448     0.591841733
 H       -2.678083864     1.164980959     0.589316799
 H       -3.297446845     5.744959972     0.301156648
 H       -0.504913489     6.780721442    -0.545461257
 H       -4.128796331     7.591171680     0.337277857
 H       -5.022742460     9.849078983     0.349460749
 H       -1.115290024    11.363398893    -0.830126103
 H       -0.266347853     9.080568332    -0.841838494
 H       -1.802750172    13.540641880     0.829102795
 H       -2.638017147    14.784331830    -1.910164172
 H       -1.341081291    16.517603853    -2.721338089
 H        0.557405066    18.063004805    -2.571259035
 H        1.600753488    16.366372272     1.268911623
 H       -0.223769135    14.760362824     1.044788687
 H        4.008270193    18.893162756     0.497543049
 H        3.573742148    17.188629323     0.724054758
 H        2.638784758    18.473872059     1.564243294
 H        0.630751688    23.452115172     0.012006113
 H        1.962996113    22.900529103    -1.047141246
 H        2.284535716    24.031906114     0.304818265
 H        2.705165468    20.699870204     3.038420941
 H        5.005631037    19.953579188     3.540771763
 H        6.421088792    21.934363995    -0.011617646
 H        4.138259307    22.649070086    -0.536763555
 H        7.254307518    19.838193030     3.071056854
 H        8.272740093    21.291783998     0.499633318
 H        9.654774088    20.893124010     4.715476196
 H        9.557499318    19.607670514     6.778511534
 H       10.069294960    15.947199117     4.573044097
 H       10.182982311    17.189102094     2.490305131
 H        9.597676617    17.605950975     7.977669902
 H        9.974024525    14.996212360     6.354240094
 H        9.500614908    16.651770462     9.761057169
 H        9.396850729    15.407414962    11.842271870
 H        9.900329316    11.705980434     9.609659448
 H       10.017469359    12.994872209     7.551039097
 H        2.991326595    20.222312161    -0.900392742
 H        2.036205623    19.512494069    -2.218210407
 H        0.562617649    21.141156066    -1.335274400
 H       -0.041653069    19.652129502    -0.619987531
 H       -0.047815428    21.334816523     1.121838413
 H        1.210582272    20.141843748     1.524976594
 H        2.267406197    -1.027987637     0.073093819
 H        2.271711946     0.571880450     0.855537362
 H        2.278044524     0.445855114    -0.923924123
 H        8.448402747    12.817214198    14.681196273
 H        7.556681041    13.652600456    13.384785642
 H        9.053792079    14.363856141    14.042283877
 H        7.739226985    10.954117430    11.731742401
 H        9.335188309    10.203828635    11.473557788
 H        8.631434083    10.257211522    13.107303774
 H       11.811034802    13.186994732    13.288621976
 H       11.319684052    11.643583903    14.033878278
 H       11.917331108    11.676098778    12.354475828
 H        9.985463273    18.246318029     0.221514958
 H       10.781451937    19.681663528    -0.465518621
 H       11.654445116    18.657968811     0.702246974
 H       10.713202624    22.299100111     2.871059517
 H       12.126139751    21.307425325     2.427001334
 H       11.223776062    22.191626036     1.168951347
 H       -4.127826974    12.648814744    -2.700966486
 H       -5.608140417    12.080032441    -1.893719183
 H       -5.187204621    13.811719949    -1.856993721
 H       -4.391510446    12.549023483     2.189889584
 H       -5.262286783    13.827540516     1.305776132
 H       -5.813667277    12.136570124     1.198132417
 H       -0.282535722    -0.357965738    -2.450314557
 H       -0.274917264    -1.911967818    -1.576330584
 H       -1.731591720    -0.884128599    -1.561220953
 H       -0.288641620    -0.361441162     2.448097957
 H       -1.707622078    -0.958412510     1.552082889
 H       -0.206641799    -1.916105469     1.580705125

