139   

Si        0.000000000     0.000000000     0.000000000
 C        1.872418582     0.000000000     0.000000000
 C       -0.563500245     1.757482043     0.000000000
 C       -0.474181568     2.500089241    -1.183458742
 C       -0.890676101     3.828661749    -1.217741303
 C       -1.424129650     4.442802688    -0.080021313
 C       -1.523688446     3.695213450     1.099177137
 C       -1.100444998     2.367392667     1.139097466
 C       -1.868700334     5.833767346    -0.087096105
 C       -1.804114601     6.628192176    -1.168802751
 C       -2.233303129     8.019670782    -1.228483435
 C       -2.091651591     8.699898526    -2.446872494
 C       -2.482095903    10.029159929    -2.570047774
 C       -3.002970033    10.718087018    -1.466226812
 C       -3.131204388    10.047958969    -0.246962106
 C       -2.746280601     8.711161849    -0.128766371
Si       -3.509001445    12.476559753    -1.667613116
 C       -4.599850657    13.022169526    -0.298807012
 C       -4.297978734    14.031108589     0.528670095
 C       -5.146110783    14.492209375     1.631277488
 C       -4.692140504    15.565071896     2.413492148
 C       -5.449990434    16.046323757     3.470729495
 C       -6.709596975    15.488685548     3.734595467
 C       -7.181758105    14.435606294     2.944280644
 C       -6.402656322    13.944760581     1.900580468
 N       -7.418930720    16.054706930     4.851293230
 C       -7.157662845    15.329074846     6.113583130
 C       -8.855264337    16.257115477     4.584719583
 C       -7.812687562    13.939292808     6.211248489
 C       -6.897843541    12.844643434     6.789886914
 N       -5.849234033    12.301695451     5.915045363
 C       -6.210275429    11.602902344     4.749905452
 C       -7.547489372    11.368343492     4.378709927
 C       -7.840853636    10.670844939     3.214632007
 C       -6.832166462    10.070500939     2.453726260
 C       -5.502972642    10.263799622     2.848758162
 C       -5.189462125    11.027252074     3.961195190
 C       -4.654450174    13.156629727     5.790935772
 C       -7.198669400     9.347580768     1.235287131
 C       -6.321377536     8.735095957     0.429983910
Si       -6.753099834     7.825021164    -1.098224212
 C       -6.200930420     6.074229091    -0.918014969
 C       -5.909575859     5.552530877     0.348489255
 C       -5.492481522     4.231178498     0.487965213
 C       -5.353395368     3.402416498    -0.632545633
 C       -5.641705030     3.927720069    -1.895464415
 C       -6.059582776     5.250230875    -2.038909533
 C       -4.913450839     2.025002926    -0.436334658
 C       -4.741104903     1.131091189    -1.424541298
 C       -4.301384287    -0.246101996    -1.229875035
 C       -4.012414637    -0.773809364     0.032323720
 C       -3.594869170    -2.096382835     0.172587445
 C       -3.474389999    -2.928601711    -0.946957191
 C       -3.771636884    -2.405612667    -2.210387365
 C       -4.179840496    -1.080431529    -2.348713693
Si       -2.918902597    -4.674731282    -0.725924741
 C       -1.251189715    -4.672196814     0.119939943
 C       -4.171097531    -5.570398625     0.333127437
 C       -2.768664495    -5.537377597    -2.376966977
 C       -8.597401010     7.833501932    -1.400829212
 C       -5.875833084     8.632068644    -2.532939105
 C       -1.959078591    13.515828158    -1.756411033
 C       -4.492735744    12.657489417    -3.248395014
 C       -0.594357646    -0.849986045    -1.549407496
 C       -0.617519100    -0.894452222     1.519437531
 H       -0.079089541     2.073577712    -2.109795759
 H       -0.806851581     4.384165277    -2.150331721
 H       -1.939985368     4.151773058     1.994691052
 H       -1.204704056     1.831573667     2.085735244
 H       -2.275155867     6.199002004     0.859079807
 H       -1.405820448     6.240290827    -2.112446077
 H       -1.680699255     8.180681336    -3.310440988
 H       -2.358556799    10.502612529    -3.547758205
 H       -3.526031796    10.548518841     0.643860980
 H       -2.849527826     8.205710074     0.830079760
 H       -5.538411817    12.453694583    -0.198315899
 H       -3.364079854    14.604947434     0.446095195
 H       -3.725776291    16.020502453     2.198906104
 H       -5.091781209    16.870059084     4.086852152
 H       -8.156656410    13.993777719     3.135587800
 H       -6.777984001    13.112438597     1.302312878
 H       -9.278410110    16.869932535     5.398788989
 H       -9.447933626    15.334674615     4.499156559
 H       -8.967060071    16.829733099     3.647127636
 H       -4.510601860    13.760682097     6.700337416
 H       -4.701929964    13.835483381     4.919955713
 H       -3.759364570    12.516694448     5.687556807
 H       -8.367408044    11.734674102     4.987049262
 H       -8.883710374    10.557355034     2.916614599
 H       -4.694569185     9.809359329     2.273512795
 H       -4.146965765    11.170218683     4.231580180
 H       -8.278879155     9.353865248     1.039589409
 H       -5.241442787     8.741533814     0.648233570
 H       -5.998854136     6.155207674     1.258170471
 H       -5.268612797     3.841886664     1.479112997
 H       -5.535501789     3.305711360    -2.781963441
 H       -6.263958217     5.607265188    -3.051545130
 H       -4.715949846     1.751325708     0.604388840
 H       -4.928169772     1.408860346    -2.465637266
 H       -4.106560641    -0.147510726     0.918117216
 H       -3.379753647    -2.452644143     1.184178784
 H       -3.697709728    -3.008583081    -3.119006216
 H       -4.406344893    -0.691884756    -3.339719070
 H       -6.055158578    15.261690694     6.236772245
 H       -7.517448589    15.981782678     6.940669707
 H       -8.726831861    14.003585418     6.830714573
 H       -8.163593564    13.629459099     5.206555409
 H       -6.406096215    13.216216680     7.718421573
 H       -7.528292637    11.978215690     7.110609603
 H        2.272900867    -1.028275928    -0.005949900
 H        2.275192792     0.511664052     0.891836386
 H        2.271993728     0.521294770    -0.887651887
 H       -0.878470603    -5.699697792     0.275374722
 H       -1.298840319    -4.180746911     1.107744513
 H       -0.498225610    -4.131508532    -0.482082139
 H       -4.278320059    -5.095351623     1.324319336
 H       -5.169196253    -5.569922674    -0.141505003
 H       -3.881143383    -6.623039910     0.496821960
 H       -2.045228649    -5.026844302    -3.037242796
 H       -2.423135129    -6.579199979    -2.251966306
 H       -3.738218090    -5.573794679    -2.904875905
 H       -9.144336587     7.355618746    -0.568359504
 H       -8.983462611     8.861657986    -1.512622189
 H       -8.852840926     7.278989067    -2.321222648
 H       -4.778090008     8.633892620    -2.375148428
 H       -6.072630811     8.107281915    -3.482512806
 H       -6.191257987     9.683138128    -2.656192804
 H       -1.364307013    13.433261783    -0.828668698
 H       -1.309404858    13.194364950    -2.590044583
 H       -2.195093855    14.583244514    -1.912300782
 H       -5.377059826    11.994602935    -3.247995561
 H       -4.855056122    13.693684788    -3.374676349
 H       -3.887952911    12.406362258    -4.136432626
 H       -0.212717462    -0.359067516    -2.460594744
 H       -0.274244240    -1.905814699    -1.579542824
 H       -1.701091960    -0.839305333    -1.607872892
 H       -0.168974958    -0.486414828     2.441484113
 H       -1.715505066    -0.810828235     1.610783358
 H       -0.368287459    -1.969648318     1.474546443

