139   

Si        0.000000000     0.000000000     0.000000000
 C        1.868996042     0.000000000     0.000000000
 C       -0.655557819     1.725918373     0.000000000
 C        0.194740024     2.833562276    -0.063476401
 C       -0.324758396     4.128314030    -0.062092464
 C       -1.703669066     4.343872610    -0.002638274
 C       -2.555315657     3.232448440     0.059607441
 C       -2.039532743     1.939578006     0.062231177
 C       -2.292311467     5.678579192     0.001222203
 C       -1.591734315     6.824638323    -0.050727538
 C       -2.187665289     8.156498657    -0.046483781
 C       -1.345025941     9.274642578    -0.104459952
 C       -1.870792416    10.564578078    -0.102705384
 C       -3.254779945    10.763680913    -0.041412647
 C       -4.098230889     9.648779241     0.019654053
 C       -3.568797997     8.359479933     0.019476528
Si       -3.973486538    12.465028570    -0.037915724
 C       -5.731636967    12.264381837    -0.508188048
 C       -6.794281281    12.611641550     0.228314033
 C       -8.178152613    12.420506977    -0.214179059
 C       -9.224142026    12.818238140     0.632593494
 C      -10.546847189    12.655639381     0.253421322
 C      -10.857540522    12.056418664    -0.982179765
 C       -9.817962806    11.655830331    -1.830838889
 C       -8.494744570    11.851401148    -1.449747672
 N      -12.239337157    11.919904090    -1.310139661
 C      -12.933473237    10.973314307    -0.405659233
 C      -12.530413128    11.650671044    -2.729405584
 C      -12.325852240     9.555318945    -0.390684412
 C      -12.333113447     8.973972498     1.035611982
 N      -11.450156203     7.820786661     1.271271012
 C      -10.098897494     8.106051023     1.633220828
 C       -9.424741946     9.291682893     1.317061825
 C       -8.105195720     9.471508486     1.717530873
 C       -7.441447408     8.500321979     2.475536084
 C       -8.128343295     7.325030647     2.804583149
 C       -9.436818648     7.123465100     2.390975180
 C      -11.564352050     6.766147044     0.247302649
 C       -6.049687016     8.733496398     2.875112593
 C       -5.328989609     7.867695818     3.599221476
Si       -3.589327775     8.088228330     4.135865489
 C       -3.583119674     8.041662587     5.982214547
 C       -4.650664822     8.602263780     6.695788858
 C       -4.660027387     8.574754848     8.087624237
 C       -3.602020916     7.994589812     8.800447915
 C       -2.537212421     7.439856903     8.085348916
 C       -2.526432792     7.462482944     6.690804417
 C       -3.657813836     7.990259873    10.258717045
 C       -2.714558552     7.465149062    11.059114348
 C       -2.770976577     7.461156318    12.517312592
 C       -3.835637800     8.015809337    13.232447405
 C       -3.848443010     7.989902730    14.627019881
 C       -2.798800857     7.399898294    15.337692388
 C       -1.730394757     6.841647578    14.623141517
 C       -1.716865987     6.875255653    13.231369335
Si       -2.794111045     7.353805287    17.182932991
 C       -4.491596767     7.755805035    17.855246296
 C       -2.304894749     5.642877490    17.756809209
 C       -1.559070452     8.612296974    17.801874981
 C       -2.585409727     6.671497795     3.454562191
 C       -2.869113199     9.709380274     3.566711107
 C       -3.789119887    13.191556618     1.670581772
 C       -3.130069316    13.544358237    -1.303473790
 C       -0.620129195    -0.873887792    -1.531049119
 C       -0.615090764    -0.876432145     1.531914980
 H        1.281835653     2.727940041    -0.114069980
 H        0.359385253     4.973606901    -0.110666560
 H       -3.633131342     3.379404687     0.107851194
 H       -2.752207102     1.111548813     0.113577372
 H       -3.386421950     5.695399670     0.048077073
 H       -0.499462243     6.809877767    -0.100894728
 H       -0.266760705     9.136503940    -0.152632110
 H       -1.166058473    11.398469065    -0.152709755
 H       -5.189580733     9.742152671     0.072919723
 H       -4.248187457     7.508996214     0.074322453
 H       -5.857897474    11.811983428    -1.507247355
 H       -6.710188143    13.069515010     1.221852030
 H       -8.996325914    13.270047430     1.598525269
 H      -11.351021526    12.994461856     0.903738106
 H      -10.030409330    11.188338691    -2.787843534
 H       -7.699892173    11.537339975    -2.128253643
 H      -13.615233066    11.775719503    -2.893201591
 H      -12.241258138    10.645297934    -3.071370954
 H      -12.021740738    12.402342790    -3.357997140
 H      -12.623493936     6.475358944     0.147736221
 H      -11.004008324     5.873060073     0.573861632
 H      -11.182826088     7.065344097    -0.741671811
 H       -9.915786146    10.075039748     0.742018625
 H       -7.588160572    10.391751823     1.435711466
 H       -7.635189871     6.553898372     3.397257341
 H       -9.964543455     6.210972999     2.660749185
 H       -5.648795680     9.692461650     2.521299088
 H       -5.763856999     6.912082990     3.937425559
 H       -5.504607939     9.066257411     6.191224737
 H       -5.500074898     9.010039024     8.625573155
 H       -1.703848856     6.982055551     8.614856575
 H       -1.668494440     7.009505126     6.186266238
 H       -4.550652676     8.459125250    10.683217380
 H       -1.822283687     6.996040303    10.634573759
 H       -4.667991207     8.476345338    12.703136487
 H       -4.707493332     8.442278651    15.130048876
 H       -0.882280263     6.367268474    15.124689731
 H       -0.877415129     6.438217625    12.693748234
 H      -12.916199599    11.421730507     0.614246419
 H      -14.004393654    10.934369008    -0.699154405
 H      -12.880165403     8.893220418    -1.077415620
 H      -11.288843160     9.573294107    -0.780147012
 H      -12.074040031     9.762725223     1.779789547
 H      -13.364669844     8.634264271     1.293440314
 H        2.266484108    -1.030628164     0.026585155
 H        2.273867827     0.532114510     0.879338084
 H        2.275004198     0.486268188    -0.904806832
 H       -4.515243277     7.666487537    18.956016430
 H       -5.256622708     7.068668842    17.451152949
 H       -4.797967748     8.785987535    17.601972922
 H       -2.990595117     4.875922361    17.352930934
 H       -1.283934764     5.378484373    17.430586270
 H       -2.332032036     5.566600391    18.858080311
 H       -1.827926639     9.632724367    17.473870224
 H       -1.507969613     8.618315816    18.904694382
 H       -0.543916470     8.401706797    17.420610777
 H       -2.963727445     5.694057700     3.801951380
 H       -2.616752939     6.663956668     2.347582181
 H       -1.523433033     6.745813213     3.746572099
 H       -3.485852641    10.568127173     3.883982278
 H       -1.852442822     9.863680294     3.969046682
 H       -2.792573501     9.739267753     2.461105738
 H       -4.267209446    12.552688212     2.436667669
 H       -2.725137048    13.296774358     1.949475627
 H       -4.248475744    14.193980702     1.734677427
 H       -3.172530574    13.095129342    -2.312361517
 H       -3.609445540    14.538424967    -1.364753324
 H       -2.065694025    13.704588209    -1.057044422
 H       -0.275093816    -0.365400489    -2.449698083
 H       -0.260518125    -1.917063806    -1.572546856
 H       -1.723757532    -0.899310085    -1.564065883
 H       -0.269734194    -0.366444190     2.449719071
 H       -1.718350260    -0.907430322     1.567428461
 H       -0.250697151    -1.918053501     1.572939596

