139   

Si        0.000000000     0.000000000     0.000000000
 C        1.869284183     0.000000000     0.000000000
 C       -0.649235822     1.728437775     0.000000000
 C        0.155720003     2.804955387    -0.385428792
 C       -0.348036931     4.105645441    -0.380586949
 C       -1.667435315     4.359210535     0.003446273
 C       -2.474125887     3.278762467     0.385190049
 C       -1.973639703     1.979515381     0.382602337
 C       -2.237810296     5.702284552     0.024194542
 C       -1.574745602     6.820774366    -0.315538271
 C       -2.146268722     8.163317508    -0.294367306
 C       -1.342099163     9.245136481    -0.674045987
 C       -1.845272046    10.544646992    -0.669248442
 C       -3.165388285    10.792725172    -0.278714522
 C       -3.971344701     9.712314858     0.102122927
 C       -3.466760673     8.413503781     0.092036486
Si       -3.870792840    12.497944274    -0.258050948
 C       -5.271277092    12.604333677    -1.434065258
 C       -5.709486469    11.589460679    -2.191065225
 C       -6.828593678    11.679131425    -3.129073412
 C       -7.187154411    10.538704960    -3.863544502
 C       -8.237659625    10.567254225    -4.764697335
 C       -9.005437715    11.742006843    -4.930514263
 C       -8.646852121    12.887137001    -4.193171260
 C       -7.562272574    12.851758990    -3.326185876
 N      -10.064127867    11.749013789    -5.847983708
 C      -10.861285215    10.519940605    -5.986819883
 C      -10.826963160    12.993916620    -6.000654705
 C      -11.392705733     9.919640603    -4.671692812
 C      -12.607111533    10.653505674    -4.075919328
 N      -13.864718396    10.576006775    -4.846517672
 C      -14.004068930    11.552902937    -5.864934663
 C      -14.048619712    12.902792149    -5.460846164
 C      -14.183472031    13.907432953    -6.404700675
 C      -14.311252805    13.604010769    -7.768978213
 C      -14.296466617    12.263020868    -8.159876822
 C      -14.158505407    11.243370462    -7.224165662
 C      -14.250484225     9.204355513    -5.210744688
 C      -14.451123796    14.704350583    -8.726132391
 C      -14.579686388    14.534393369   -10.048103232
Si      -14.757237175    15.876598580   -11.283525941
 C      -13.340237635    15.745042554   -12.457354043
 C      -12.122812020    15.202141525   -12.027089559
 C      -11.047867227    15.098930116   -12.906142561
 C      -11.159663301    15.541431604   -14.230931223
 C      -12.375129191    16.086263286   -14.654828112
 C      -13.455186211    16.188028085   -13.778532145
 C      -10.005110608    15.411996127   -15.114140250
 C       -9.981569147    15.792831522   -16.402712760
 C       -8.827524392    15.663756473   -17.286538759
 C       -7.611559817    15.119317083   -16.864508368
 C       -6.534010945    15.015085542   -17.743716078
 C       -6.652029765    15.445281207   -19.069410188
 C       -7.870349997    15.990057301   -19.495081825
 C       -8.942329818    16.100180860   -18.613095122
Si       -5.231113462    15.311401098   -20.240889374
 C       -4.066179201    13.956061522   -19.692499798
 C       -5.860522133    14.910129576   -21.954989048
 C       -4.330609397    16.948431197   -20.261951682
 C      -16.377369100    15.628642912   -12.178758887
 C      -14.719538992    17.564447234   -10.487806187
 C       -4.486389889    12.878876339     1.464757609
 C       -2.584943514    13.758670639    -0.756768290
 C       -0.628952225    -0.864149086    -1.532618189
 C       -0.603984396    -0.892151039     1.527916608
 H        1.195401933     2.670086209    -0.696267034
 H        0.300430864     4.926549213    -0.681820235
 H       -3.504850564     3.454113780     0.687969037
 H       -2.649951669     1.177405719     0.690849345
 H       -3.282149791     5.749919231     0.346659087
 H       -0.530307505     6.772789472    -0.637652404
 H       -0.311749247     9.072514389    -0.979249026
 H       -1.172134476    11.348318008    -0.980015746
 H       -5.011133052     9.846263386     0.417175998
 H       -4.112915020     7.590193832     0.390962016
 H       -5.744442832    13.596747389    -1.478837877
 H       -5.247651003    10.590906095    -2.166820680
 H       -6.620246861     9.615325516    -3.734676754
 H       -8.466122032     9.681240164    -5.349497867
 H       -9.209026276    13.809631014    -4.292693696
 H       -7.294608123    13.756458896    -2.778617014
 H      -11.572622714    12.883170440    -6.810259208
 H      -10.142460560    13.805696989    -6.308527811
 H      -11.361984693    13.301797269    -5.087696815
 H      -14.258193320     8.582743812    -4.298114824
 H      -13.593287775     8.725695364    -5.953278217
 H      -15.282191557     9.212936346    -5.606280916
 H      -13.987884052    13.147653027    -4.402069123
 H      -14.208194884    14.947667672    -6.078511549
 H      -14.397713049    12.001625788    -9.214589964
 H      -14.155980191    10.210818705    -7.560819265
 H      -14.441370416    15.694735826    -8.252478197
 H      -14.588891010    13.525996172   -10.494084396
 H      -11.977871543    14.840454790   -11.003401364
 H      -10.110332170    14.669963976   -12.556047844
 H      -12.488457824    16.436854640   -15.679073832
 H      -14.380914693    16.620128580   -14.167968451
 H       -9.120387036    14.967881857   -14.647991752
 H      -10.866390670    16.236742581   -16.868584002
 H       -7.495064918    14.771498092   -15.839466872
 H       -5.607982151    14.582772534   -17.354311652
 H       -8.021592214    16.342430082   -20.519186682
 H       -9.880242434    16.528183897   -18.962244591
 H      -11.705328179    10.716769826    -6.686525605
 H      -10.217495699     9.765959353    -6.501656995
 H      -11.638248668     8.853921986    -4.836490926
 H      -10.582037061     9.914675540    -3.912035953
 H      -12.830364463    10.227299443    -3.067950404
 H      -12.349247422    11.722699924    -3.906332830
 H        2.267443265    -1.027877535     0.073203174
 H        2.270765985     0.572181072     0.855848246
 H        2.278323409     0.446221358    -0.923509107
 H       -3.252311986    13.809372386   -20.424853166
 H       -4.595182236    12.991546229   -19.587511202
 H       -3.596489817    14.187744076   -18.720451014
 H       -6.463104058    13.983691618   -21.952036179
 H       -6.495006893    15.718264538   -22.358695398
 H       -5.025761601    14.760760861   -22.662624917
 H       -3.944496778    17.207779243   -19.259582302
 H       -3.471851142    16.927001086   -20.955609737
 H       -4.997223791    17.770136610   -20.579762790
 H      -16.389756290    14.672787420   -12.733293822
 H      -17.225655114    15.611157991   -11.470234466
 H      -16.568942621    16.438025631   -12.904889908
 H      -13.773857473    17.731466339    -9.940600266
 H      -14.805078624    18.365562098   -11.244317958
 H      -15.550966805    17.692356660    -9.772011431
 H       -5.278198950    12.173919222     1.775615506
 H       -3.669198666    12.806496740     2.204908606
 H       -4.905899755    13.898162309     1.527866278
 H       -2.227893087    13.582131358    -1.787880913
 H       -2.995225748    14.783794811    -0.723059221
 H       -1.708782670    13.730100828    -0.085341483
 H       -0.283402665    -0.355389903    -2.450737834
 H       -0.277962233    -1.910037478    -1.578195836
 H       -1.733148858    -0.880041051    -1.561827429
 H       -0.298972179    -0.359640017     2.447217606
 H       -1.704500536    -0.977688535     1.544078060
 H       -0.191287485    -1.915010816     1.583899688

