139   

Si        0.000000000     0.000000000     0.000000000
 C        1.869159651     0.000000000     0.000000000
 C       -0.655278998     1.725876304     0.000000000
 C        0.191512227     2.830901044    -0.126101954
 C       -0.326547361     4.126178853    -0.123486023
 C       -1.700455480     4.345828375     0.003287674
 C       -2.548261988     3.236678974     0.127923040
 C       -2.034321574     1.942930565     0.125672536
 C       -2.286775934     5.682166604     0.011078638
 C       -1.587438494     6.824384853    -0.100186681
 C       -2.172603333     8.161140840    -0.092524803
 C       -1.324290046     9.268489638    -0.217124562
 C       -1.837206755    10.564066272    -0.215024956
 C       -3.212640048    10.782112950    -0.082195418
 C       -4.063016603     9.676380099     0.043080461
 C       -3.547549835     8.381690031     0.035493932
Si       -3.928739424    12.482555565    -0.075031361
 C       -5.020719755    12.701066253    -1.529577518
 C       -5.256556991    11.760082793    -2.453592645
 C       -6.130228511    11.941221387    -3.613449851
 C       -6.294040674    10.874693537    -4.510113094
 C       -7.108830326    10.992339753    -5.623451951
 C       -7.756658204    12.214666604    -5.909281704
 C       -7.591413034    13.286124842    -5.011267243
 C       -6.807736950    13.134637516    -3.873848168
 N       -8.579002826    12.315129270    -7.042647215
 C       -8.192787595    11.544490561    -8.238222894
 C       -9.167634847    13.629776345    -7.334427616
 C       -6.753747822    11.767630166    -8.733018090
 C       -6.548208514    13.082444905    -9.503950989
 N       -6.993098317    13.066886344   -10.908131790
 C       -6.461452875    12.083079655   -11.754946161
 C       -5.156220908    11.590982014   -11.531874825
 C       -4.621559139    10.619715608   -12.361801966
 C       -5.333671195    10.137566600   -13.469800114
 C       -6.612309607    10.648218979   -13.707052934
 C       -7.172745811    11.608062497   -12.874038735
 C       -8.403811986    13.431863097   -11.100285007
 C       -4.719854543     9.110790476   -14.312556730
 C       -5.300479095     8.574636563   -15.394247140
Si       -4.546371221     7.289487731   -16.459157464
 C       -2.872589344     6.842793308   -15.824173421
 C       -1.870366542     7.821875041   -15.772770819
 C       -0.600482679     7.507446940   -15.297469870
 C       -0.299504177     6.210647520   -14.858668556
 C       -1.301169787     5.238047063   -14.909237822
 C       -2.574658686     5.549537446   -15.386201999
 C        1.046012264     5.929032330   -14.368812076
 C        1.461171386     4.731328617   -13.922543447
 C        2.805784872     4.446695237   -13.432163610
 C        3.810809775     5.415717131   -13.379607379
 C        5.083042154     5.098437371   -12.902880540
 C        5.377447110     3.802762372   -12.469072920
 C        4.371107919     2.828379639   -12.520599355
 C        3.102351596     3.148053278   -12.995662350
Si        7.049973402     3.349400816   -11.832754234
 C        8.218535684     4.804439495   -11.937233652
 C        6.884963149     2.815041973   -10.049455955
 C        7.724086650     1.943367940   -12.863346899
 C       -5.674746238     5.799875648   -16.470394595
 C       -4.375384116     7.957650722   -18.195923223
 C       -4.932711919    12.713548930     1.483943874
 C       -2.581699966    13.775545556    -0.148905027
 C       -0.622389910    -0.872061501    -1.531038703
 C       -0.611941071    -0.879619273     1.531634560
 H        1.274738777     2.722881563    -0.228880258
 H        0.354904546     4.969378265    -0.222613651
 H       -3.621918427     3.385843377     0.227570586
 H       -2.744599828     1.117342315     0.225479036
 H       -3.375436005     5.703399838     0.117338157
 H       -0.498753628     6.802521692    -0.206429838
 H       -0.250992057     9.119122487    -0.318570819
 H       -1.126834313    11.388629100    -0.319902174
 H       -5.147006117     9.786453915     0.149326513
 H       -4.228648280     7.538175968     0.132851856
 H       -5.486818423    13.695792407    -1.594647279
 H       -4.798715922    10.760369392    -2.411224414
 H       -5.781143468     9.929710594    -4.322302943
 H       -7.246712146    10.134903176    -6.276413464
 H       -8.074585886    14.240842407    -5.187887015
 H       -6.710140440    13.975236004    -3.185359391
 H       -9.812893866    13.565317887    -8.226209497
 H       -8.421541666    14.424930586    -7.496549765
 H       -9.821006738    13.926178793    -6.491748338
 H       -8.701763978    14.201390563   -10.369280255
 H       -9.096272567    12.578350849   -11.013548941
 H       -8.524547795    13.883238459   -12.103593640
 H       -4.562084130    11.968267551   -10.704192684
 H       -3.621162464    10.234904975   -12.155723367
 H       -7.188481344    10.291552646   -14.562036022
 H       -8.168885491    11.974179421   -13.097228179
 H       -3.719222332     8.810984876   -13.967144795
 H       -6.304630752     8.888551716   -15.717688798
 H       -2.047296194     8.850939346   -16.101405210
 H        0.165990207     8.279715338   -15.266514456
 H       -1.094869239     4.223149293   -14.574195666
 H       -3.316638953     4.746509742   -15.399897603
 H        1.728013695     6.784176319   -14.386159264
 H        0.778454387     3.876441232   -13.905576613
 H        3.607800248     6.432134275   -13.712238312
 H        5.827567304     5.899089317   -12.885575196
 H        4.543471509     1.798700658   -12.194634787
 H        2.333284190     2.378404306   -13.027780722
 H       -8.336204211    10.463378588    -7.993635852
 H       -8.918550915    11.758143047    -9.052834947
 H       -6.053878216    11.742333733    -7.871850097
 H       -6.456081903    10.909457768    -9.370917182
 H       -7.052910838    13.922439294    -8.978308504
 H       -5.462760124    13.348478753    -9.502452457
 H        2.267057900    -1.029666050     0.044915255
 H        2.273218752     0.547969283     0.870021258
 H        2.275581125     0.470452625    -0.912907889
 H        9.225622025     4.532969555   -11.573019558
 H        7.864938315     5.653625687   -11.325767547
 H        8.329007273     5.160745904   -12.977016280
 H        6.477288429     3.630164046    -9.424143105
 H        6.205619578     1.950427060    -9.946647450
 H        7.861660182     2.525089272    -9.623909311
 H        7.817381975     2.235520559   -13.925225184
 H        8.724517158     1.632603213   -12.514323303
 H        7.066187061     1.057475027   -12.822029700
 H       -5.813482986     5.392516054   -15.452393323
 H       -6.675644110     6.057980862   -16.859846765
 H       -5.270578526     4.991884311   -17.105476504
 H       -3.741578033     8.862436020   -18.219882113
 H       -3.912306445     7.211065114   -18.866005423
 H       -5.356711826     8.228078906   -18.623506725
 H       -5.767008724    11.991133826     1.537787047
 H       -4.309299529    12.567576971     2.384496317
 H       -5.367311004    13.727038011     1.538408679
 H       -1.995106713    13.693007445    -1.081947937
 H       -3.003619765    14.795893721    -0.115917241
 H       -1.882176234    13.678734259     0.700170198
 H       -0.274736641    -0.365215269    -2.449630250
 H       -0.267215860    -1.916728006    -1.572011460
 H       -1.726183675    -0.892599064    -1.564425717
 H       -0.276707463    -0.362657320     2.449285698
 H       -1.714798701    -0.924023431     1.562506906
 H       -0.235319367    -1.916627730     1.576984612

