139   

Si        0.000000000     0.000000000     0.000000000
 C        1.869138586     0.000000000     0.000000000
 C       -0.658202799     1.724572937     0.000000000
 C        0.182652147     2.831748684     0.145078022
 C       -0.339940827     4.125308385     0.141760453
 C       -1.712829494     4.340722040    -0.002142052
 C       -2.554766170     3.229219925    -0.144692014
 C       -2.036217037     1.937419746    -0.143191202
 C       -2.305068427     5.674357354    -0.011521716
 C       -1.614139468     6.820128205     0.114169015
 C       -2.208569232     8.153004312     0.104512867
 C       -3.582939543     8.363525413    -0.039762617
 C       -4.109669296     9.654644038    -0.043645042
 C       -3.268845193    10.764539155     0.087455617
 C       -1.891232489    10.557843861     0.230957866
 C       -1.369599648     9.266664204     0.242595234
Si       -3.954963671    12.477938767     0.083642615
 C       -2.648995325    13.612026838    -0.517293893
 C       -2.131067016    14.639446558     0.168844635
 C       -1.086186986    15.525687838    -0.345753814
 C       -0.620054802    16.570954380     0.464763002
 C        0.367042861    17.436672848     0.024211292
 C        0.967896187    17.251222763    -1.241708888
 C        0.502622532    16.198456901    -2.055259416
 C       -0.520488085    15.370394307    -1.614756946
 N        1.963514352    18.132287162    -1.675036910
 C        2.858777837    18.725166566    -0.670142548
 C        2.586690160    17.875827532    -2.979112999
 C        3.551560947    17.727599745     0.277005965
 C        4.740613596    16.971396950    -0.341291440
 N        5.906204837    17.787664477    -0.737854927
 C        5.855580299    18.298284467    -2.059428588
 C        5.829054788    17.358900324    -3.110778799
 C        5.779468831    17.788126226    -4.426328129
 C        5.785893589    19.156369449    -4.740053316
 C        5.843018835    20.081751281    -3.695403742
 C        5.892762554    19.665625435    -2.368931804
 C        6.355561148    18.724920246     0.302249924
 C        5.731913109    19.554764831    -6.148773149
 C        5.732396928    20.825962514    -6.569628252
Si        5.665900182    21.363409971    -8.320855600
 C        4.150682394    22.391135401    -8.545919934
 C        3.090717761    22.299503152    -7.635624323
 C        1.946802273    23.075488273    -7.805672029
 C        1.830712800    23.953216941    -8.891422321
 C        2.888952721    24.037599771    -9.801190534
 C        4.037046477    23.264516673    -9.632533229
 C        0.612240405    24.745073947    -9.026142115
 C        0.375790800    25.623068803   -10.015522168
 C       -0.842971139    26.414538833   -10.149509133
 C       -1.900811893    26.330086137    -9.239948847
 C       -3.047718075    27.105363145    -9.406556704
 C       -3.158999845    27.990172260   -10.484637853
 C       -2.100288476    28.076737986   -11.397223395
 C       -0.958978047    27.295603725   -11.232554104
Si       -4.678234452    29.016468762   -10.704461510
 C       -5.422479758    29.421730670    -9.038050428
 C       -4.254701922    30.611744519   -11.582322764
 C       -5.902734988    28.039888044   -11.723317865
 C        7.193617293    22.378529687    -8.672625225
 C        5.580792775    19.909316706    -9.487853264
 C       -5.406553683    12.595130556    -1.087085854
 C       -4.500670433    12.902076279     1.818157519
 C       -0.610252901    -0.880806314    -1.531745737
 C       -0.622615060    -0.872612947     1.530732651
 H        1.264620172     2.726578567     0.262649738
 H        0.336931352     4.970503605     0.254021460
 H       -3.627556616     3.374962890    -0.257910935
 H       -2.742097650     1.110028131    -0.257994906
 H       -3.392394455     5.690347667    -0.132109310
 H       -0.526901762     6.805021965     0.234874788
 H       -4.256574248     7.515754372    -0.149647587
 H       -5.192273076     9.756521345    -0.157479822
 H       -1.188046473    11.391127355     0.335201176
 H       -0.296608222     9.124564853     0.357428734
 H       -2.303791433    13.379481188    -1.537934063
 H       -2.455817159    14.898038491     1.185328910
 H       -1.051881408    16.717562985     1.455354276
 H        0.674172317    18.262876733     0.657972361
 H        0.934024635    16.022591334    -3.035294605
 H       -0.873038241    14.572867949    -2.271409584
 H        3.299657952    18.684714195    -3.226412710
 H        1.809450542    17.888485535    -3.765398409
 H        3.131563920    16.918757931    -3.026752930
 H        6.498385370    18.168813203     1.245516605
 H        5.666836169    19.562701256     0.492068222
 H        7.340669283    19.135340130     0.015164783
 H        5.860788258    16.295486041    -2.880447800
 H        5.751958119    17.050314299    -5.228939383
 H        5.855054356    21.150746603    -3.914331706
 H        5.945786657    20.410896973    -1.580763331
 H        5.689621515    18.701101417    -6.838186262
 H        5.779493255    21.663210682    -5.853983224
 H        3.124081215    21.627851741    -6.771121213
 H        1.133976003    22.994478388    -7.085852280
 H        2.823578832    24.711312924   -10.653642615
 H        4.831816305    23.374133225   -10.375399696
 H       -0.131672607    24.576030603    -8.241757812
 H        1.118970641    25.791889305   -10.800466063
 H       -1.837440984    25.652898089    -8.389822967
 H       -3.842160245    26.993357058    -8.663375951
 H       -2.130585855    28.750077634   -12.258297060
 H       -0.148201379    27.375398893   -11.954430351
 H        3.620394810    19.347818862    -1.193118065
 H        2.250152869    19.442579205    -0.067451345
 H        3.878524216    18.265176933     1.186954220
 H        2.812558234    16.978639089     0.633622108
 H        5.119176936    16.224602190     0.398266378
 H        4.389111619    16.383653534    -1.218735236
 H        2.266847457    -1.029864167    -0.041789474
 H        2.276249948     0.473492543     0.910974346
 H        2.272643058     0.545198796    -0.872026804
 H       -6.296895909    30.088422631    -9.142967188
 H       -4.690739438    29.933900901    -8.387185356
 H       -5.761706578    28.514114947    -8.508864449
 H       -3.472022914    31.171628567   -11.038981211
 H       -3.885665684    30.430771765   -12.606932644
 H       -5.138364981    31.269818210   -11.661837103
 H       -6.166474771    27.086812118   -11.230402739
 H       -6.838113179    28.605177095   -11.880192842
 H       -5.490922409    27.791914753   -12.718175515
 H        7.227904090    23.286658189    -8.043629104
 H        8.112714937    21.799378847    -8.468710037
 H        7.232418744    22.702846192    -9.727320285
 H        4.683397339    19.292563152    -9.297680859
 H        5.531218533    20.242143458   -10.540460633
 H        6.466189237    19.256778879    -9.386474070
 H       -5.131127546    12.262266594    -2.104143552
 H       -6.254174882    11.973901971    -0.749938082
 H       -5.768623437    13.636486780    -1.166881125
 H       -3.657542233    12.845312812     2.530458488
 H       -4.918462996    13.923143576     1.870799322
 H       -5.279059234    12.204226423     2.175451470
 H       -0.274327031    -0.364336649    -2.449385163
 H       -0.233058216    -1.917656408    -1.576173317
 H       -1.713030054    -0.925899780    -1.563674832
 H       -0.274406102    -0.366421576     2.449434501
 H       -1.726435242    -0.892185291     1.564324863
 H       -0.268349934    -1.917603414     1.571033581

