139   

Si        0.000000000     0.000000000     0.000000000
 C        1.868947617     0.000000000     0.000000000
 C       -0.661691224     1.722909768     0.000000000
 C        0.180659072     2.834169392     0.096549656
 C       -0.345391144     4.126355691     0.094284116
 C       -1.723096626     4.336366242    -0.003845913
 C       -2.566522806     3.220892138    -0.099278961
 C       -2.044597428     1.930462786    -0.096519094
 C       -2.319210204     5.668332727    -0.010256630
 C       -1.627123086     6.817057106     0.075468733
 C       -2.224385235     8.148626918     0.068959600
 C       -3.603738024     8.355116274    -0.029397332
 C       -4.132660030     9.644915966    -0.031949458
 C       -3.289914715    10.758211825     0.059260784
 C       -1.908459745    10.555373163     0.158368517
 C       -1.383803081     9.265024398     0.165847517
Si       -3.994411703    12.463911716     0.055524634
 C       -2.643113184    13.652153402    -0.287873156
 C       -2.253758227    14.641950248     0.526470905
 C       -1.168547156    15.576344245     0.222665397
 C       -0.850332834    16.574479234     1.155095282
 C        0.167203986    17.483199081     0.916215462
 C        0.880895379    17.453908409    -0.302537333
 C        0.561674261    16.451900405    -1.239571677
 C       -0.431166943    15.520881449    -0.962996980
 N        1.909902446    18.378394242    -0.535402105
 C        1.811296744    19.698256592     0.111000775
 C        2.496245986    18.409037132    -1.883083079
 C        0.543752817    20.499385230    -0.232248520
 C        0.637921040    21.275820868    -1.556987659
 N        1.359846973    22.558749044    -1.483939116
 C        0.919998652    23.496926249    -0.535367685
 C       -0.457026451    23.592069773    -0.236029995
 C       -0.910040020    24.510559864     0.696050572
 C       -0.027249483    25.397176308     1.330692437
 C        1.330504146    25.321568308     1.011058051
 C        1.804734774    24.395830849     0.089766136
 C        2.809982872    22.447480739    -1.697081016
 C       -0.562236030    26.346517086     2.307486013
 C        0.177111179    27.240519582     2.977697330
Si       -0.483786584    28.432489250     4.201963531
 C       -2.308352971    28.213381189     4.367716562
 C       -3.130432895    28.442210428     3.256966315
 C       -4.511541742    28.284412887     3.353275538
 C       -5.103103986    27.889382765     4.557266206
 C       -4.278701357    27.658230328     5.665497054
 C       -2.897378069    27.817794508     5.573164403
 C       -6.544116918    27.711700730     4.704058240
 C       -7.441599075    27.900752008     3.721811383
 C       -8.882730644    27.723388725     3.867421228
 C       -9.476827919    27.331464350     5.069517715
 C      -10.859888616    27.173914419     5.163884948
 C      -11.679208308    27.408195351     4.056125911
 C      -11.086322476    27.802180248     2.848486820
 C       -9.705942509    27.956538978     2.757083596
Si      -13.512502734    27.209047021     4.146796339
 C      -14.043936792    26.732301626     5.874209662
 C      -14.317340032    28.830498421     3.681448656
 C      -14.027706619    25.871111857     2.948147286
 C        0.375583161    28.138311153     5.835002211
 C       -0.132664964    30.170942750     3.613839206
 C       -5.264820914    12.622372985    -1.305629062
 C       -4.791107740    12.781613813     1.713746151
 C       -0.612109741    -0.881812910    -1.530397964
 C       -0.619729440    -0.872469295     1.532457417
 H        1.266632268     2.733359854     0.174763077
 H        0.332769533     4.974676548     0.169425331
 H       -3.643007356     3.362424146    -0.176337447
 H       -2.751868218     1.099804947    -0.173192225
 H       -3.410117683     5.680199131    -0.092137784
 H       -0.536254000     6.805447837     0.158012408
 H       -4.278637075     7.504564151    -0.104695351
 H       -5.218800189     9.743927491    -0.109659730
 H       -1.203748457    11.390239554     0.235900492
 H       -0.307148387     9.126323051     0.246624865
 H       -2.152797508    13.490781067    -1.261431364
 H       -2.725181670    14.829420143     1.500498881
 H       -1.405219031    16.632387205     2.092606770
 H        0.409036566    18.220864861     1.676287474
 H        1.089314506    16.385485196    -2.185041882
 H       -0.644985715    14.744307914    -1.699567777
 H        3.278467418    19.183504129    -1.941968364
 H        1.757299715    18.594838188    -2.680141109
 H        2.993060092    17.440118222    -2.081078409
 H        3.021974848    21.696626280    -2.475956557
 H        3.372696993    22.179914301    -0.787538758
 H        3.192510010    23.414121463    -2.076602674
 H       -1.170957966    22.942149265    -0.734337058
 H       -1.975407967    24.552322452     0.929279948
 H        2.038940629    25.999685268     1.489047689
 H        2.867491210    24.372400555    -0.125696581
 H       -1.649759813    26.254095425     2.446947631
 H        1.264612512    27.312151808     2.825153345
 H       -2.724930591    28.750781211     2.287944955
 H       -5.129811881    28.472183355     2.477238466
 H       -4.718709316    27.349435446     6.611850445
 H       -2.305142229    27.622057914     6.471160653
 H       -6.867809531    27.402567906     5.702220724
 H       -7.117975607    28.210108642     2.723407326
 H       -8.861291776    27.144565779     5.947745200
 H      -11.265689774    26.863439727     6.130542597
 H      -11.677273928    27.999198271     1.949564200
 H       -9.263141139    28.262464973     1.810880732
 H        1.863835057    19.535116467     1.215000715
 H        2.722966804    20.284388942    -0.137877251
 H       -0.330414978    19.817383201    -0.271948796
 H        0.320508186    21.201652386     0.597397708
 H        1.107115709    20.646673193    -2.344222664
 H       -0.390953151    21.495851425    -1.933092943
 H        2.266558879    -1.030595636     0.017809011
 H        2.275639337     0.524983412     0.882654342
 H        2.273154371     0.494287136    -0.901496883
 H      -15.142219756    26.630905595     5.938941543
 H      -13.738970147    27.491766095     6.616106058
 H      -13.605481729    25.766049542     6.181120892
 H      -14.009421398    29.640529904     4.367543192
 H      -14.041220405    29.142342530     2.658720892
 H      -15.418459891    28.759260968     3.722805200
 H      -13.558375587    24.903461427     3.202912294
 H      -15.121894829    25.722954137     2.956207355
 H      -13.731754086    26.118179196     1.913193844
 H        0.214011863    27.105839059     6.194579263
 H        1.466456065    28.288027828     5.746327259
 H        0.008664376    28.829443718     6.614307002
 H       -0.598790879    30.366694064     2.631324002
 H       -0.529421929    30.919176542     4.323599814
 H        0.951576719    30.351138410     3.508857190
 H       -4.833736570    12.365414383    -2.290110312
 H       -6.127659262    11.955173367    -1.136144759
 H       -5.650243806    13.655926730    -1.372079765
 H       -4.055773950    12.698798546     2.535088408
 H       -5.236724336    13.791099935     1.760818443
 H       -5.594984956    12.052173618     1.919020838
 H       -0.276534485    -0.366873624    -2.448959973
 H       -0.236107405    -1.919119883    -1.573686254
 H       -1.715026103    -0.925274169    -1.561076111
 H       -0.263921440    -0.369792954     2.450186376
 H       -1.723322993    -0.886832649     1.571796007
 H       -0.270168526    -1.919154823     1.568933110

