139   

Si        0.000000000     0.000000000     0.000000000
 C        1.868919382     0.000000000     0.000000000
 C       -0.662743276     1.722771391     0.000000000
 C        0.166765633     2.829585933    -0.202168115
 C       -0.359704761     4.121687487    -0.197432525
 C       -1.725077888     4.335604656     0.007141338
 C       -2.555802400     3.224470690     0.207116718
 C       -2.033576526     1.934257667     0.202378713
 C       -2.322529844     5.666768539     0.020799382
 C       -1.645666947     6.813975034    -0.157435128
 C       -2.250670038     8.142151984    -0.142390092
 C       -1.430151792     9.260570227    -0.341763459
 C       -1.964158095    10.546824135    -0.335467951
 C       -3.335977546    10.743269199    -0.135465615
 C       -4.157637474     9.629050851     0.063891316
 C       -3.618457750     8.343202112     0.063345525
Si       -4.051941599    12.443295492    -0.125575382
 C       -5.848112394    12.307575327    -0.466474111
 C       -6.828071550    12.714662052     0.350260429
 C       -8.255532506    12.590084986     0.044500353
 C       -9.190190336    13.054817824     0.982838316
 C      -10.550711869    12.960046322     0.741358846
 C      -11.018401457    12.424334036    -0.475907466
 C      -10.087950456    11.955519277    -1.415351209
 C       -8.725922833    12.022026741    -1.141774366
 N      -12.421291285    12.354802832    -0.661352269
 C      -13.129666304    13.649327062    -0.643321873
 C      -12.890832696    11.437752951    -1.710617579
 C      -13.178884917    14.416524099    -1.976438444
 C      -11.820336597    14.971819711    -2.442789813
 N      -11.355874302    16.181470901    -1.743849299
 C      -12.253251984    17.251392338    -1.627319024
 C      -13.116107852    17.551815575    -2.705388005
 C      -14.011141257    18.604136037    -2.613355297
 C      -14.054846337    19.424128058    -1.475923835
 C      -13.180101589    19.142729268    -0.422889389
 C      -12.286902125    18.081596027    -0.490232965
 C      -10.451208341    15.925584929    -0.616073782
 C      -15.021078232    20.522663815    -1.431838451
 C      -15.152752545    21.367754865    -0.400820042
Si      -16.348190435    22.752166351    -0.309006278
 C      -17.454003301    22.478070225     1.143082996
 C      -17.542252658    21.216756305     1.744062759
 C      -18.378136414    21.014614272     2.839721410
 C      -19.150168106    22.063464620     3.355856944
 C      -19.063087829    23.320465178     2.749986464
 C      -18.225545087    23.527036303     1.654697822
 C      -20.010695744    21.802119799     4.505184772
 C      -20.797148429    22.717542419     5.096360819
 C      -21.657501569    22.455719407     6.245666914
 C      -21.744524593    21.198584090     6.851521456
 C      -22.579847951    20.992639251     7.948191156
 C      -23.344597135    22.043591889     8.468718780
 C      -23.258735370    23.302824133     7.864291163
 C      -22.426886751    23.504521605     6.764937717
Si      -24.443406600    21.745445683     9.921936580
 C      -23.477445405    20.849169723    11.247872524
 C      -25.076333107    23.362203428    10.614479524
 C      -25.887242591    20.698131721     9.364625657
 C      -15.384101445    24.336990790    -0.084535275
 C      -17.402752567    22.857932418    -1.846310404
 C       -3.719937356    13.221733227     1.538046551
 C       -3.285365867    13.475918028    -1.480193985
 C       -0.623197025    -0.871489049    -1.531144752
 C       -0.607127349    -0.884510899     1.531108736
 H        1.242665581     2.725154631    -0.366751628
 H        0.307958185     4.966771395    -0.355869127
 H       -3.622675399     3.369239090     0.368035174
 H       -2.730784480     1.107046899     0.363006700
 H       -3.403312189     5.679632414     0.192655752
 H       -0.565557737     6.803871800    -0.329180002
 H       -0.362336901     9.125510545    -0.503220465
 H       -1.275694670    11.381073653    -0.494972817
 H       -5.236521359     9.724239055     0.226751943
 H       -4.278108925     7.492022794     0.223636707
 H       -6.074953983    11.846948676    -1.442121337
 H       -6.633281750    13.178281200     1.326314217
 H       -8.842834559    13.482294219     1.924081391
 H      -11.266100399    13.283135494     1.495277976
 H      -10.419548165    11.533290233    -2.359284700
 H       -8.019810408    11.637513954    -1.879589611
 H      -13.986283931    11.328637499    -1.622731172
 H      -12.450984209    10.438290217    -1.541799944
 H      -12.653042795    11.757303460    -2.737202625
 H       -9.741805359    15.118511309    -0.878546508
 H      -10.968733816    15.633016023     0.311786212
 H       -9.845372048    16.829649507    -0.421723945
 H      -13.077920906    16.957543877    -3.613541956
 H      -14.681886776    18.806450399    -3.449011621
 H      -13.193087754    19.764928288     0.473716872
 H      -11.629642412    17.894477804     0.352682157
 H      -15.639925458    20.590218661    -2.336524448
 H      -14.513516110    21.278371460     0.492360105
 H      -16.965441379    20.359754306     1.380506564
 H      -18.431235087    20.028059406     3.296486474
 H      -19.652822921    24.151967928     3.131403683
 H      -18.198540765    24.531475123     1.223541306
 H      -19.978569450    20.773025611     4.875320646
 H      -20.829555881    23.746462981     4.726017929
 H      -21.157597680    20.365986991     6.467679473
 H      -22.607193911    19.987010783     8.377335417
 H      -23.832086020    24.160157534     8.227297026
 H      -22.375628984    24.491019115     6.307720459
 H      -14.173216163    13.432916090    -0.308986340
 H      -12.684529700    14.297588565     0.144082863
 H      -13.595289478    13.769586537    -2.770995872
 H      -13.906360454    15.249526135    -1.873407511
 H      -11.036236053    14.184615715    -2.358784771
 H      -11.877687910    15.221478331    -3.529961276
 H        2.266343280    -1.029356904     0.055564787
 H        2.272497980     0.556910691     0.864678503
 H        2.276507544     0.461220571    -0.916986185
 H      -24.090017446    20.691462258    12.153033693
 H      -22.582590892    21.424641459    11.547516340
 H      -23.133127285    19.858554017    10.902789784
 H      -24.244602280    24.029815380    10.902997534
 H      -25.702301256    23.902093261     9.882222080
 H      -25.693792472    23.195031137    11.515161337
 H      -25.549090625    19.732075668     8.949312452
 H      -26.574112782    20.480668560    10.201252340
 H      -26.471218306    21.207957216     8.576984607
 H      -14.804016593    24.325177157     0.856003538
 H      -14.668681797    24.487922504    -0.913318564
 H      -16.049571346    25.217061435    -0.053925504
 H      -17.980280653    21.928389308    -2.001627276
 H      -18.129105741    23.687467704    -1.778778835
 H      -16.786612345    23.026314511    -2.747393289
 H       -4.164983148    12.626770624     2.356621147
 H       -2.635503720    13.293038007     1.738201763
 H       -4.137362379    14.242505747     1.597444358
 H       -3.392283732    12.989962528    -2.466996596
 H       -3.767243219    14.468464761    -1.545775807
 H       -2.207712408    13.640844625    -1.305671580
 H       -0.277425544    -0.363728519    -2.449831699
 H       -0.267476811    -1.915925445    -1.573196093
 H       -1.727091600    -0.892511875    -1.562963420
 H       -0.284244066    -0.360016131     2.448929285
 H       -1.709188776    -0.946231009     1.556790553
 H       -0.214906015    -1.915549878     1.581219539

