139   

Si        0.000000000     0.000000000     0.000000000
 C        1.869515825     0.000000000     0.000000000
 C       -0.633688564     1.734364573     0.000000000
 C        0.106988428     2.761903732    -0.594268710
 C       -0.370137543     4.072040816    -0.595100215
 C       -1.601385144     4.384478672    -0.011965493
 C       -2.344360561     3.353520605     0.577708031
 C       -1.868210042     2.044628667     0.583859613
 C       -2.139290293     5.741003383     0.010082570
 C       -1.524350487     6.813996456    -0.515590361
 C       -2.057744275     8.172003652    -0.496180068
 C       -3.287345251     8.492096931     0.084634878
 C       -3.758009157     9.805745751     0.079760241
 C       -3.008767180    10.825944477    -0.511408448
 C       -1.773987968    10.508303410    -1.095276137
 C       -1.305371376     9.198187913    -1.084538670
Si       -3.592220530    12.575111962    -0.540688858
 C       -2.467286570    13.612408148     0.466623062
 C       -1.392374502    13.143320866     1.114276863
 C       -0.487510834    13.962788323     1.921315399
 C        0.603524386    13.341522696     2.547387564
 C        1.491121160    14.069220107     3.322609913
 C        1.348282157    15.466940436     3.442552241
 C        0.260598110    16.092324440     2.811987785
 C       -0.654478320    15.340037487     2.084466485
 N        2.278123425    16.170791188     4.245224019
 C        3.702789504    15.907175931     3.956681616
 C        2.003086190    17.602883388     4.454182947
 C        4.171324249    16.368336923     2.563318580
 C        4.269147072    15.193391571     1.569516586
 N        4.186935744    15.583729101     0.145007739
 C        2.861654981    15.994011669    -0.216486972
 C        1.943109199    14.964018645    -0.478649973
 C        0.640337044    15.275436491    -0.834816980
 C        0.226085650    16.611199454    -0.952166249
 C        1.151139001    17.627443417    -0.703224875
 C        2.462189962    17.328447540    -0.344706625
 C        5.249243701    16.522383030    -0.257694392
 C       -1.163218213    16.884972563    -1.331797099
 C       -1.668046363    18.117132779    -1.473494419
Si       -3.389992074    18.526563367    -1.944252724
 C       -3.342704641    19.504152361    -3.507056768
 C       -2.247453777    19.397186389    -4.372976131
 C       -2.208156685    20.133838249    -5.554063295
 C       -3.263349381    20.987360179    -5.902088192
 C       -4.357265201    21.087668602    -5.037549100
 C       -4.398521830    20.353652128    -3.852603091
 C       -3.175119236    21.738102501    -7.150434092
 C       -4.112221043    22.590068058    -7.599632620
 C       -4.021571680    23.339710217    -8.848526248
 C       -2.926786880    23.237639228    -9.711138262
 C       -2.881143773    23.972693276   -10.895394607
 C       -3.928374989    24.833475057   -11.240089997
 C       -5.026834892    24.937797576   -10.377070315
 C       -5.072930940    24.197280787    -9.198582534
Si       -3.875948596    25.810309234   -12.806089679
 C       -2.105837402    26.064039686   -13.351391365
 C       -4.810035872    24.864496972   -14.119176417
 C       -4.672366908    27.480367482   -12.538266886
 C       -4.415915046    16.993275145    -2.225747508
 C       -4.133977209    19.538944964    -0.561077531
 C       -3.557649370    13.190292158    -2.305438155
 C       -5.322212213    12.728516394     0.144778138
 C       -0.632267757    -0.855508894    -1.536030154
 C       -0.605471931    -0.901641461     1.521624554
 H        1.075399482     2.579875459    -1.068626989
 H        0.228274341     4.853709957    -1.059880116
 H       -3.305869355     3.574690486     1.037691629
 H       -2.491442750     1.283240828     1.060900342
 H       -3.112660097     5.840036711     0.499520479
 H       -0.551292553     6.712834892    -1.005579757
 H       -3.891023465     7.714496670     0.549229326
 H       -4.725519547     9.995621932     0.552655671
 H       -1.144289756    11.266625251    -1.572090641
 H       -0.344291706     8.969120756    -1.541348981
 H       -2.745742169    14.676425432     0.511885664
 H       -1.102300419    12.081918475     1.089555804
 H        0.746973520    12.265584879     2.439315262
 H        2.297810182    13.560222083     3.843663827
 H        0.122824346    17.167419907     2.872200024
 H       -1.496958398    15.848255462     1.611652278
 H        2.715122415    18.004132265     5.195468326
 H        0.991984155    17.718352046     4.885109736
 H        2.071723093    18.213734906     3.540033379
 H        6.224172429    16.024535873    -0.116056273
 H        5.261724283    17.473806318     0.293633344
 H        5.145487147    16.742320150    -1.334787776
 H        2.263255791    13.926397906    -0.393120055
 H       -0.071212892    14.467886955    -1.019235813
 H        0.852345242    18.672466125    -0.789216959
 H        3.164538560    18.134980241    -0.157692804
 H       -1.756143959    15.974310700    -1.493312954
 H       -1.042764033    19.009446164    -1.302337643
 H       -1.395603588    18.744480990    -4.153205178
 H       -1.346939360    20.041311230    -6.213561049
 H       -5.190099182    21.743395869    -5.284735578
 H       -5.279116910    20.474587222    -3.215962440
 H       -2.262163047    21.560087018    -7.726703656
 H       -5.025552227    22.768143159    -7.024409870
 H       -2.096492727    22.578178662    -9.464250189
 H       -1.999140043    23.848749502   -11.529873061
 H       -5.874283212    25.593963387   -10.593954730
 H       -5.936324566    24.290248191    -8.542257430
 H        4.301945349    16.415415733     4.746642873
 H        3.893254817    14.819781340     4.097514078
 H        3.471521482    17.130283103     2.165674117
 H        5.148211331    16.876088308     2.642320729
 H        5.226271095    14.645813382     1.710652357
 H        3.451413483    14.458665344     1.762037851
 H        2.268281189    -1.027602551     0.072225173
 H        2.269556568     0.572063416     0.856756889
 H        2.279598844     0.448450407    -0.921732677
 H       -2.053339570    26.703628552   -14.250501584
 H       -1.612288199    25.107822888   -13.598519151
 H       -1.509612634    26.554260081   -12.560553397
 H       -4.363383269    23.868445056   -14.290805607
 H       -5.864038383    24.705953159   -13.828464609
 H       -4.806275310    25.402935860   -15.083114526
 H       -4.185711746    28.026877302   -11.710041964
 H       -4.594056752    28.109705774   -13.442580827
 H       -5.744508469    27.388516928   -12.291723554
 H       -3.988187130    16.368120607    -3.031180099
 H       -4.480477787    16.378175394    -1.310108083
 H       -5.447210928    17.251736081    -2.526279725
 H       -3.593882820    20.493352620    -0.425793134
 H       -5.192161947    19.782350838    -0.759159019
 H       -4.091831882    18.995553151     0.400476238
 H       -2.533141506    13.185197171    -2.718921969
 H       -4.179562860    12.551371756    -2.958089087
 H       -3.944896431    14.221880899    -2.383943492
 H       -5.366042293    12.413259623     1.203226451
 H       -5.684538165    13.770958833     0.098517761
 H       -6.036506356    12.104584854    -0.421054945
 H       -0.287410673    -0.343616491    -2.452512549
 H       -0.284090426    -1.902107186    -1.586500069
 H       -1.736765617    -0.868684990    -1.563313785
 H       -0.311041772    -0.370152071     2.444783165
 H       -1.705062434    -0.999921515     1.529548913
 H       -0.182907297    -1.920729155     1.576555920

