139   

Si        0.000000000     0.000000000     0.000000000
 C        1.869112584     0.000000000     0.000000000
 C       -0.613526713     1.741042477     0.000000000
 C       -0.097839969     2.657564755    -0.924451113
 C       -0.547172447     3.976775462    -0.941586017
 C       -1.525423668     4.410302910    -0.041452173
 C       -2.042499111     3.491189348     0.880016128
 C       -1.593242626     2.172369430     0.901241087
 C       -2.025340368     5.781302191    -0.023333275
 C       -1.611174981     6.756567979    -0.849900077
 C       -2.109841757     8.127939796    -0.833287444
 C       -3.087786124     8.563760834     0.065630062
 C       -3.535655718     9.884070024     0.046477586
 C       -3.006840909    10.799324006    -0.869640146
 C       -2.026825847    10.366884440    -1.771367758
 C       -1.587332166     9.045460139    -1.754098460
Si       -3.595668722    12.547125974    -0.899354900
 C       -2.303292122    13.578839299    -1.690391715
 C       -2.467577174    14.309334387    -2.800672155
 C       -1.414694865    15.125342802    -3.410669626
 C       -1.711927102    15.847505109    -4.577010211
 C       -0.752323148    16.633673556    -5.192623420
 C        0.533603596    16.755366891    -4.627053720
 C        0.835230605    16.034562828    -3.462114865
 C       -0.125629183    15.214384193    -2.880126328
 N        1.467902475    17.575070200    -5.307413224
 C        1.085870456    18.995641568    -5.436035028
 C        2.881362930    17.373903675    -4.953630720
 C        1.452255913    19.909728351    -4.253898823
 C        0.657633971    19.635639456    -2.963682069
 N       -0.736058499    20.111464512    -2.958201057
 C       -0.974971626    21.426504200    -3.383234691
 C       -0.074224879    22.447861639    -3.006215013
 C       -0.287473481    23.754062507    -3.412730782
 C       -1.418041222    24.104838625    -4.166054829
 C       -2.322394480    23.097763532    -4.512374123
 C       -2.117591548    21.779302862    -4.126153799
 C       -1.730386399    19.092795295    -3.318171359
 C       -1.592850569    25.500770818    -4.568634907
 C       -2.628116695    25.956171092    -5.287072283
Si       -2.861256926    27.698998128    -5.798631612
 C       -1.462842185    28.731549869    -5.179533845
 C       -1.256992489    28.853105755    -3.797975636
 C       -0.209270005    29.626050553    -3.305931441
 C        0.661365399    30.293024570    -4.178946647
 C        0.455028843    30.167768699    -5.555002959
 C       -0.595371581    29.395203154    -6.051329533
 C        1.744886920    31.091313757    -3.614709809
 C        2.644750611    31.779430895    -4.337701477
 C        3.728223457    32.577676569    -3.773127353
 C        3.934632996    32.702983831    -2.396920221
 C        4.983770417    33.476997560    -1.900699614
 C        5.854330392    34.138286949    -2.772191531
 C        5.650062359    34.013828807    -4.153058237
 C        4.598808718    33.245200247    -4.645326151
Si        7.249990181    35.168362941    -2.139812756
 C        7.530043576    34.851922507    -0.318931877
 C        8.808012991    34.736580856    -3.078399276
 C        6.822420696    36.968056664    -2.403981680
 C       -2.957522424    27.756720565    -7.664181452
 C       -4.457620003    28.342077960    -5.070492894
 C       -5.206426318    12.616190981    -1.840144761
 C       -3.845793093    13.175231932     0.842079990
 C       -0.635951057    -0.847287465    -1.539634990
 C       -0.610172559    -0.915127743     1.511451869
 H        0.666892262     2.377515423    -1.654532419
 H       -0.128023263     4.670693192    -1.668216334
 H       -2.805052917     3.807130608     1.589687116
 H       -2.032999883     1.501181993     1.643923482
 H       -2.789966981     5.979412809     0.733556417
 H       -0.846954060     6.557617916    -1.607252082
 H       -3.510457101     7.870522646     0.790574909
 H       -4.303749098    10.165968009     0.771814752
 H       -1.579952435    11.040673328    -2.510064865
 H       -0.826975515     8.725794421    -2.464585995
 H       -1.336809202    13.556517790    -1.160739768
 H       -3.418676328    14.351789966    -3.347852591
 H       -2.706909841    15.775190579    -5.017421214
 H       -0.979848986    17.150037638    -6.123385825
 H        1.819302553    16.102929280    -3.008021095
 H        0.135439526    14.648320296    -1.984492489
 H        3.510524662    17.955461475    -5.650180134
 H        3.139108884    16.308720860    -5.095454179
 H        3.141020945    17.664321193    -3.923700638
 H       -1.462332563    18.124382339    -2.856330113
 H       -1.831750225    18.932885672    -4.403876843
 H       -2.713403859    19.381645130    -2.903138064
 H        0.789003810    22.209754127    -2.391568495
 H        0.429848044    24.525329757    -3.128104109
 H       -3.209488883    23.343792816    -5.097516835
 H       -2.841922028    21.027480994    -4.421421570
 H       -0.778465918    26.154641563    -4.222889289
 H       -3.429374316    25.281233318    -5.624560773
 H       -1.903701416    28.354315986    -3.068989770
 H       -0.066082412    29.711459405    -2.230307309
 H        1.116476521    30.674763428    -6.255114480
 H       -0.705376837    29.334123588    -7.137473524
 H        1.785433340    31.099516879    -2.521451318
 H        2.604151121    31.771917332    -5.430952808
 H        3.273206979    32.195570588    -1.696867566
 H        5.093045272    33.538309263    -0.814411675
 H        6.298193993    34.508419651    -4.882030061
 H        4.454894364    33.161972345    -5.721065833
 H        1.589647051    19.373640487    -6.358631708
 H       -0.006847570    19.064312246    -5.634903963
 H        2.533305455    19.831072400    -4.033713084
 H        1.299174441    20.964141292    -4.568852725
 H        0.666569868    18.545057976    -2.735946454
 H        1.173796483    20.126936309    -2.103346449
 H        2.269643983    -1.028749415     0.028190547
 H        2.268682291     0.537082325     0.879550305
 H        2.277441570     0.491303923    -0.900551346
 H        8.402491184    35.417823579     0.054083838
 H        7.721239343    33.781807520    -0.121376489
 H        6.657831293    35.155110500     0.286776607
 H        9.053935109    33.664387347    -2.971208836
 H        8.706604675    34.946420301    -4.157542303
 H        9.672684154    35.314777666    -2.707319525
 H        5.897831276    37.243497225    -1.864830004
 H        7.628803832    37.630890181    -2.044009911
 H        6.657957305    37.191185315    -3.473262385
 H       -2.038144497    27.354744157    -8.127270604
 H       -3.804302215    27.155314545    -8.040194277
 H       -3.096628597    28.789432550    -8.029651621
 H       -4.447891992    28.290228022    -3.966824723
 H       -4.626842533    29.397241676    -5.351143111
 H       -5.326287680    27.758572992    -5.422521334
 H       -5.082102327    12.257457085    -2.878324880
 H       -5.975498965    11.980681921    -1.364913164
 H       -5.605388411    13.645066507    -1.884126821
 H       -2.925826608    13.068440492     1.445146885
 H       -4.120364088    14.245866600     0.843833667
 H       -4.650113404    12.625433600     1.361352145
 H       -0.289782289    -0.335000516    -2.454990186
 H       -0.293560965    -1.895619519    -1.593134021
 H       -1.740769603    -0.855114015    -1.565134232
 H       -0.289324698    -0.414377043     2.442551120
 H       -1.712226101    -0.983987574     1.528847461
 H       -0.215653271    -1.946719433     1.538491308

