139   

Si        0.000000000     0.000000000     0.000000000
 C        1.869321803     0.000000000     0.000000000
 C       -0.657227844     1.724682112     0.000000000
 C        0.186579101     2.830944481    -0.134763548
 C       -0.333702396     4.125356599    -0.131886160
 C       -1.707055778     4.342933655     0.004849557
 C       -2.551866271     3.232457995     0.138262228
 C       -2.035747904     1.939622020     0.134858893
 C       -2.296253472     5.677982819     0.013388830
 C       -1.600817779     6.821744637    -0.106468195
 C       -2.189874463     8.156923818    -0.097949112
 C       -3.564186835     8.373369006     0.038933908
 C       -4.085007475     9.666634793     0.041914696
 C       -3.238473350    10.773059201    -0.085061987
 C       -1.861411511    10.560274106    -0.221964417
 C       -1.345311863     9.266733197    -0.231266947
Si       -3.927224920    12.486570363    -0.081243835
 C       -2.578864870    13.630962432     0.401676792
 C       -2.094733550    14.641959730    -0.331160755
 C       -1.010849929    15.523829372     0.114502560
 C       -0.577344927    16.552964758    -0.728745221
 C        0.447183779    17.411922662    -0.345815082
 C        1.036681960    17.283008699     0.917779877
 C        0.601405997    16.254799214     1.773416098
 C       -0.397993254    15.383704981     1.366111905
 N        2.091523613    18.110668870     1.406986283
 C        2.927788025    18.787597253     0.402902585
 C        1.670694822    18.988477661     2.515032409
 C        2.408599335    20.145886021    -0.104578766
 C        3.110799354    20.544513083    -1.419259526
 N        2.218377801    21.192988303    -2.408081140
 C        1.114502574    20.361847543    -2.761089851
 C        1.402107488    19.166593950    -3.447582194
 C        0.374539263    18.314729807    -3.819295525
 C       -0.963507507    18.639301098    -3.548453549
 C       -1.242131838    19.835679992    -2.883623817
 C       -0.219812747    20.694286534    -2.494092474
 C        1.876927839    22.575697698    -2.029907518
 C       -2.017379813    17.708167321    -3.959934923
 C       -3.320557921    17.928836320    -3.746399550
Si       -4.698094726    16.822541848    -4.225917305
 C       -5.567134543    16.369709569    -2.660562676
 C       -4.954891215    16.596469287    -1.421381577
 C       -5.607714917    16.256069298    -0.239599799
 C       -6.885566368    15.682922295    -0.267520194
 C       -7.492456816    15.455375700    -1.506137956
 C       -6.840180043    15.791671835    -2.691891807
 C       -7.528560935    15.343628759     0.997461818
 C       -8.746527168    14.787834317     1.113162713
 C       -9.385166105    14.450404591     2.380979661
 C       -8.774623135    14.679719840     3.616576339
 C       -9.421764461    14.341459522     4.805179422
 C      -10.695391502    13.766030358     4.783190492
 C      -11.310135409    13.534620988     3.544899178
 C      -10.661880281    13.872637663     2.360244493
Si      -11.579952201    13.306380910     6.336998257
 C      -10.553575235    13.734035429     7.839227800
 C      -13.194354953    14.245769944     6.405803663
 C      -11.909036225    11.466764967     6.317629475
 C       -5.845659195    17.748076256    -5.368179388
 C       -4.081182956    15.261906709    -5.041823075
 C       -4.604287384    12.860005721    -1.776049067
 C       -5.283656009    12.615606094     1.194252058
 C       -0.621547864    -0.871839937    -1.531830375
 C       -0.611393367    -0.881866240     1.530871696
 H        1.269264987     2.724334589    -0.244250748
 H        0.345295811     4.969607457    -0.238123279
 H       -3.624990631     3.379953134     0.245558895
 H       -2.743851223     1.113119632     0.241494439
 H       -3.384041199     5.696876338     0.127989972
 H       -0.512961069     6.802820190    -0.221232404
 H       -4.241731363     7.528210357     0.144392438
 H       -5.167936533     9.773970286     0.150960322
 H       -1.154124572    11.389837174    -0.325519133
 H       -0.272450156     9.120103503    -0.341033963
 H       -2.171229801    13.412721281     1.403277649
 H       -2.478096624    14.890815798    -1.329578212
 H       -1.043475717    16.689428083    -1.707494335
 H        0.769054577    18.192067528    -1.033695153
 H        1.070644655    16.135156172     2.747750992
 H       -0.708661793    14.582817730     2.037714984
 H        2.555388014    19.502581603     2.925868660
 H        1.238660944    18.374494470     3.324335588
 H        0.924022503    19.743306232     2.222497684
 H        2.809561743    23.164627329    -1.978134349
 H        1.353500267    22.668678895    -1.066229266
 H        1.254233514    23.029202101    -2.820829523
 H        2.434265065    18.919460278    -3.688127767
 H        0.611788104    17.385805021    -4.338805930
 H       -2.274023324    20.108917628    -2.657029166
 H       -0.469823020    21.612418111    -1.970512693
 H       -1.637442445    16.810113810    -4.463179087
 H       -3.664607538    18.849420674    -3.243701741
 H       -3.955132755    17.037962761    -1.335088237
 H       -5.112312496    16.434997683     0.714343181
 H       -8.484291625    15.010154552    -1.554374564
 H       -7.363774674    15.589789616    -3.629855680
 H       -6.941497122    15.588454748     1.888686499
 H       -9.338313339    14.550029447     0.224527767
 H       -7.782884120    15.126770013     3.662360921
 H       -8.893556938    14.544340536     5.740977511
 H      -12.305057890    13.087305920     3.465905111
 H      -11.155171458    13.685482364     1.408196771
 H        3.930960606    18.924121654     0.872734829
 H        3.080541774    18.084490473    -0.448450065
 H        1.311649909    20.093242776    -0.251761822
 H        2.559265982    20.925185517     0.661776897
 H        3.959828090    21.231138668    -1.213958681
 H        3.557469259    19.652183255    -1.915083642
 H        2.267141646    -1.030286439     0.024855317
 H        2.272862134     0.531194472     0.880590131
 H        2.275769295     0.488254330    -0.903433506
 H      -11.096420997    13.497977181     8.772137863
 H      -10.303601550    14.809657900     7.866925388
 H       -9.605679204    13.167114665     7.857073110
 H      -13.021266909    15.337367334     6.411811469
 H      -13.833622064    14.018502516     5.534518680
 H      -13.767946982    13.994338268     7.315195638
 H      -10.966126022    10.892138876     6.270098047
 H      -12.449366463    11.145484906     7.225478472
 H      -12.518180422    11.172569515     5.444802181
 H       -6.269589336    18.643877492    -4.878855329
 H       -5.318363326    18.087320524    -6.278307267
 H       -6.692556926    17.117435266    -5.691367675
 H       -3.412515800    14.690536829    -4.370992150
 H       -4.917960976    14.594367370    -5.315564735
 H       -3.519873962    15.484665561    -5.966613210
 H       -3.807203112    12.897134650    -2.538930500
 H       -5.335952077    12.097544105    -2.095992621
 H       -5.124256492    13.838973229    -1.785468819
 H       -4.930698480    12.323656832     2.198774063
 H       -5.663384492    13.652535953     1.259598067
 H       -6.143427248    11.970498434     0.940495265
 H       -0.273783372    -0.364060323    -2.449792070
 H       -0.266600643    -1.916424283    -1.573350281
 H       -1.725352223    -0.891924736    -1.565432436
 H       -0.275790339    -0.366330117     2.449078038
 H       -1.714219242    -0.925955960     1.561782198
 H       -0.234992605    -1.918971862     1.574260600

