139   

Si        0.000000000     0.000000000     0.000000000
 C        1.869176593     0.000000000     0.000000000
 C       -0.652586302     1.726956596     0.000000000
 C        0.165009252     2.814349350    -0.322499621
 C       -0.345335002     4.112579837    -0.317310771
 C       -1.682325442     4.353318638     0.009392030
 C       -2.501278589     3.261953109     0.329354865
 C       -1.995442098     1.964926387     0.322415316
 C       -2.260258579     5.693122436     0.028183577
 C       -1.588160473     6.820655653    -0.259747775
 C       -2.166967978     8.160112012    -0.240692550
 C       -1.349605215     9.252270207    -0.563206988
 C       -1.857780218    10.548050679    -0.558344174
 C       -3.196704246    10.785220547    -0.217297225
 C       -4.012520500     9.697833878     0.106924747
 C       -3.502867964     8.399199858     0.091302499
Si       -3.841604156    12.514453557    -0.219889737
 C       -3.885307375    13.146858543    -1.938033320
 C       -3.503350300    12.445845877    -3.014075834
 C       -3.538284328    12.951132648    -4.386721058
 C       -3.109275154    12.113066750    -5.426269531
 C       -3.121366889    12.540575893    -6.743710104
 C       -3.618637176    13.819468536    -7.076292996
 C       -4.051137133    14.660807788    -6.033227928
 C       -3.986099098    14.233890634    -4.713082225
 N       -3.625531736    14.242079454    -8.418227571
 C       -3.844728621    13.206342886    -9.444274949
 C       -4.339379488    15.496488932    -8.716176499
 C       -5.213963390    12.514662556    -9.320288398
 C       -5.610452306    11.736421862   -10.585385190
 N       -5.685282359    12.527620455   -11.834901510
 C       -6.169591225    13.846908765   -11.694786840
 C       -7.397514902    14.036294852   -11.025111881
 C       -7.913522378    15.310357825   -10.862716190
 C       -7.250677959    16.431963940   -11.386343504
 C       -6.049396949    16.237257466   -12.070344496
 C       -5.512928840    14.964652336   -12.234758873
 C       -4.521130768    12.340687642   -12.715471393
 C       -7.842281433    17.755887974   -11.184533451
 C       -7.306945004    18.898358351   -11.634458127
Si       -8.034398454    20.562321089   -11.390420965
 C       -9.607828644    20.430606397   -10.436492711
 C      -10.669074549    19.681653015   -10.964243822
 C      -11.866982271    19.565983106   -10.265290757
 C      -12.035217003    20.191269944    -9.022033982
 C      -10.975231186    20.935746869    -8.498366672
 C       -9.773682267    21.055092420    -9.197434677
 C      -13.310021335    20.040135521    -8.328262038
 C      -13.602206722    20.586611345    -7.135756481
 C      -14.877734982    20.434547880    -6.443090192
 C      -15.936967222    19.689538486    -6.968273477
 C      -17.139354344    19.570677449    -6.271784148
 C      -17.305957985    20.188565048    -5.027963856
 C      -16.245410128    20.935407374    -4.498999792
 C      -15.048712542    21.058824363    -5.200334362
Si      -18.895089418    20.035543090    -4.100088965
 C      -19.779960809    18.463315312    -4.589845625
 C      -18.554976762    19.990327671    -2.262391551
 C      -19.960003702    21.514245367    -4.512679168
 C       -6.788663591    21.617308400   -10.481438900
 C       -8.401660387    21.319525937   -13.058082749
 C       -5.572204070    12.580998820     0.481904410
 C       -2.711617598    13.595273283     0.803219119
 C       -0.627776995    -0.866854678    -1.531655813
 C       -0.604666566    -0.888885376     1.529505031
 H        1.219353226     2.689830587    -0.584162807
 H        0.312718257     4.941622671    -0.571733284
 H       -3.546240755     3.427274364     0.585555302
 H       -2.682941841     1.153966964     0.578619240
 H       -3.318970798     5.730265249     0.301713720
 H       -0.529497383     6.783496024    -0.533008975
 H       -0.305882073     9.087452926    -0.823985961
 H       -1.174518873    11.360202095    -0.826069884
 H       -5.064553387     9.822297315     0.378089968
 H       -4.160037482     7.569182406     0.343773690
 H       -4.260769082    14.176991042    -2.030247488
 H       -3.128772545    11.413503189    -2.944755145
 H       -2.747803074    11.110071554    -5.194927111
 H       -2.746642319    11.880016863    -7.519839156
 H       -4.432957846    15.654935542    -6.243249127
 H       -4.310938356    14.911894862    -3.922628286
 H       -4.339795688    15.688598431    -9.804035408
 H       -3.804303356    16.337073617    -8.239214494
 H       -5.389410816    15.498681191    -8.379423912
 H       -4.375886769    11.260199587   -12.892699841
 H       -3.580809241    12.759407038   -12.324375204
 H       -4.730966143    12.795453826   -13.700658171
 H       -7.939301291    13.174536073   -10.642135234
 H       -8.857066140    15.441810701   -10.330443708
 H       -5.516905356    17.092050654   -12.489429762
 H       -4.575728887    14.854569506   -12.770796791
 H       -8.782728969    17.725730815   -10.614487712
 H       -6.362565769    18.903220083   -12.200189126
 H      -10.596363651    19.172320063   -11.930526993
 H      -12.681281267    18.982322987   -10.690809909
 H      -11.079337365    21.431720086    -7.535034046
 H       -8.980490101    21.650327552    -8.736835585
 H      -14.048659197    19.430036331    -8.856556340
 H      -12.864617832    21.197329347    -6.606510784
 H      -15.831627315    19.194366171    -7.931968002
 H      -17.931583435    18.976226671    -6.735232956
 H      -16.317628762    21.440244576    -3.531630538
 H      -14.237025330    21.645592187    -4.773883386
 H       -3.739319443    13.692813634   -10.441111242
 H       -3.021047083    12.461147653    -9.383629719
 H       -5.210680315    11.827761173    -8.450865561
 H       -5.989539154    13.271306472    -9.082518208
 H       -4.916156393    10.881238339   -10.735581670
 H       -6.622888923    11.288103475   -10.434426472
 H        2.266994490    -1.028875476     0.060455030
 H        2.271205056     0.561343217     0.862686268
 H        2.277815158     0.457313072    -0.918300985
 H      -20.698532068    18.320511238    -3.993054581
 H      -19.139658431    17.576965411    -4.429867452
 H      -20.076752505    18.474106505    -5.653197787
 H      -17.862221928    19.168625971    -2.004684063
 H      -18.102226353    20.931772430    -1.905371370
 H      -19.485157932    19.832574120    -1.687974383
 H      -20.174049349    21.565686191    -5.595533259
 H      -20.927655147    21.474660714    -3.982347261
 H      -19.462472272    22.459756341    -4.231199352
 H       -6.545211186    21.190038981    -9.491643387
 H       -5.843021085    21.698835299   -11.046525090
 H       -7.168174252    22.642298687   -10.321995952
 H       -9.117378883    20.703811890   -13.632379510
 H       -8.844931844    22.326010359   -12.949013901
 H       -7.486877465    21.421158854   -13.667984280
 H       -6.281471504    12.003345636    -0.138152730
 H       -5.607317557    12.171779976     1.506980008
 H       -5.946719643    13.619336522     0.526044479
 H       -1.693246130    13.634316399     0.376573568
 H       -3.087028169    14.632157051     0.859383548
 H       -2.624312192    13.214435721     1.836709536
 H       -0.284609168    -0.357230447    -2.450190420
 H       -0.273558525    -1.911619719    -1.577291125
 H       -1.731927671    -0.886244536    -1.559831936
 H       -0.283470971    -0.364730519     2.448132607
 H       -1.706277334    -0.956557082     1.555051531
 H       -0.207730594    -1.918305939     1.577978796

