139   

Si        0.000000000     0.000000000     0.000000000
 C        1.869929621     0.000000000     0.000000000
 C       -0.633573645     1.734916335     0.000000000
 C        0.172039682     2.798983637    -0.418132734
 C       -0.318536760     4.104385947    -0.413280925
 C       -1.635893845     4.372350095    -0.030160185
 C       -2.445763728     3.303845024     0.376125960
 C       -1.949966168     2.002588158     0.398144708
 C       -2.188389124     5.723887217    -0.011134937
 C       -1.501290805     6.827109466    -0.353052827
 C       -2.033600883     8.185319486    -0.341130126
 C       -3.345235255     8.485242984     0.036539790
 C       -3.805288130     9.802105379     0.030494746
 C       -2.954926822    10.851638196    -0.333865752
 C       -1.638017740    10.553682691    -0.706316933
 C       -1.185752594     9.237114779    -0.713129624
Si       -3.553763520    12.597753671    -0.345183582
 C       -3.508883479    13.315629854     1.337415523
 C       -3.103667459    12.693140041     2.452829296
 C       -3.088296171    13.316710164     3.777514688
 C       -2.643476163    12.570696603     4.877736786
 C       -2.611219196    13.118186730     6.149550840
 C       -3.054324337    14.435428835     6.384783323
 C       -3.495042940    15.187776057     5.276050804
 C       -3.487590902    14.637459248     4.000735717
 N       -3.024864445    14.998584895     7.672808944
 C       -3.054961903    14.096304283     8.841631245
 C       -3.846988111    16.206437088     7.867946222
 C       -2.260441803    14.688390298    10.022661529
 C       -0.735173939    14.688765707     9.794716564
 N       -0.039593823    13.400620819     9.993884591
 C       -0.127839765    12.518780040     8.881401045
 C        0.539549641    12.915863297     7.705595334
 C        0.499486250    12.110278826     6.580981163
 C       -0.167597021    10.874133741     6.603275667
 C       -0.799738212    10.472625272     7.781142754
 C       -0.774319106    11.276656771     8.917563733
 C       -0.282318765    12.791978926    11.310893214
 C       -0.176342648    10.065092008     5.382945475
 C       -0.775320226     8.872159853     5.275193756
Si       -0.785666379     7.861781203     3.749511785
 C       -0.004920734     6.211753953     3.983266735
 C        0.755713526     5.862499313     5.101414104
 C        1.315761345     4.587250966     5.204240566
 C        1.129335115     3.640915172     4.193293570
 C        0.368411743     3.996051846     3.071918747
 C       -0.189754334     5.264555826     2.967499856
 C        1.686741890     2.294244579     4.240462052
 C        2.435586707     1.797441886     5.239064264
 C        2.980291685     0.443362899     5.258010076
 C        2.765009991    -0.467820077     4.219812762
 C        3.302433197    -1.752857975     4.274806111
 C        4.078978534    -2.153279721     5.367580348
 C        4.297838131    -1.242317280     6.408513732
 C        3.751618763     0.037915936     6.354740520
Si        4.790785352    -3.854651642     5.440860741
 C        5.136887291    -4.477671796     3.711946426
 C        6.390057581    -3.839598904     6.409101055
 C        3.553037532    -4.974318862     6.281085453
 C       -2.580351743     7.637331904     3.276681968
 C        0.134030813     8.739011750     2.380946122
 C       -2.476958168    13.643268278    -1.460576432
 C       -5.315420968    12.644690595    -0.969989057
 C       -0.644383230    -0.877707226    -1.515455204
 C       -0.585508443    -0.862329986     1.552470719
 H        1.205528136     2.651745534    -0.744438888
 H        0.337418718     4.916452769    -0.723628574
 H       -3.472785581     3.490309977     0.684935431
 H       -2.625062534     1.212104156     0.737755823
 H       -3.233963058     5.789042600     0.302226327
 H       -0.456732504     6.751406756    -0.673902407
 H       -4.025219861     7.687721982     0.330302621
 H       -4.844009209     9.974558587     0.326848749
 H       -0.928030170    11.331826536    -1.000889947
 H       -0.160512528     9.026335845    -1.012619363
 H       -3.860623946    14.359430467     1.368802354
 H       -2.747382836    11.653007616     2.457097042
 H       -2.308561207    11.539182718     4.736739831
 H       -2.233996089    12.509691458     6.971042235
 H       -3.830727437    16.211797797     5.396916448
 H       -3.818144418    15.252325776     3.162772769
 H       -3.862251787    16.504085743     8.928493433
 H       -4.890792936    16.075460276     7.536485784
 H       -3.393804069    17.044462276     7.307233596
 H       -0.033262671    13.528517899    12.094020287
 H        0.401933158    11.934045314    11.439668550
 H       -1.313271306    12.443137086    11.476013224
 H        1.075302978    13.863423661     7.687227578
 H        0.999149734    12.439449877     5.669005508
 H       -1.319929194     9.515145221     7.822824006
 H       -1.272327835    10.937590778     9.820185832
 H        0.368672044    10.534974846     4.552005086
 H       -1.314787838     8.422444972     6.122878083
 H        0.934203144     6.565479777     5.919628521
 H        1.903842026     4.335372929     6.084289969
 H        0.206705527     3.275021427     2.269163431
 H       -0.773912732     5.481663671     2.066125904
 H        1.447276729     1.676508928     3.367875416
 H        2.679308693     2.406565755     6.113112487
 H        2.169735220    -0.179810649     3.354127719
 H        3.095625868    -2.420395461     3.433926911
 H        4.896412628    -1.498621793     7.286865728
 H        3.930935936     0.730471277     7.175130862
 H       -4.102909848    13.893735422     9.157429100
 H       -2.613251352    13.106738863     8.578422578
 H       -2.583395112    15.729655396    10.215173256
 H       -2.513197346    14.125930521    10.939973113
 H       -0.523042836    15.056101703     8.761882156
 H       -0.258474776    15.417539628    10.489988355
 H        2.269529311    -1.024680551     0.103806535
 H        2.276324442     0.600601562     0.834786711
 H        2.277701005     0.416269844    -0.937847145
 H        5.631510895    -5.464930631     3.735256856
 H        5.802190327    -3.786145094     3.163954853
 H        4.209990081    -4.587172853     3.122634777
 H        7.112858142    -3.125056627     5.975027149
 H        6.228693665    -3.552342677     7.462799913
 H        6.866804048    -4.835923757     6.407876243
 H        2.596088587    -5.001453375     5.729695554
 H        3.928889302    -6.010165505     6.350187020
 H        3.331157006    -4.629533024     7.307119458
 H       -3.144412558     7.108402838     4.064037896
 H       -3.071584341     8.612702301     3.104538244
 H       -2.674089248     7.050944834     2.344882968
 H        1.181103456     8.945763182     2.663221266
 H        0.153426118     8.123860265     1.462660259
 H       -0.347450563     9.699801295     2.120771746
 H       -1.450587462    13.738119538    -1.063237700
 H       -2.408397711    13.209127457    -2.473694891
 H       -2.882863949    14.665353146    -1.563920770
 H       -6.002069577    12.109136761    -0.290433048
 H       -5.682862237    13.682254922    -1.058345189
 H       -5.397451093    12.175328659    -1.966567719
 H       -0.307525746    -0.381115381    -2.443325663
 H       -0.297144859    -1.925104090    -1.554774765
 H       -1.748795601    -0.892590303    -1.535702751
 H       -0.278403006    -0.311604936     2.461306102
 H       -1.685541789    -0.951795529     1.579751260
 H       -0.170199448    -1.883080834     1.626032414

