139   

Si        0.000000000     0.000000000     0.000000000
 C        1.869819491     0.000000000     0.000000000
 C       -0.595347816     1.746542955     0.000000000
 C       -0.123474318     2.638013912     0.970968141
 C       -0.559471206     3.961649898     0.989985358
 C       -1.473819922     4.424978618     0.039380092
 C       -1.946619376     3.530861198    -0.929429924
 C       -1.516370528     2.206094978    -0.948036285
 C       -1.958544287     5.800451835     0.019364441
 C       -1.591165948     6.755706872     0.890194781
 C       -2.082740332     8.129242324     0.860740790
 C       -2.997403428     8.577492129    -0.096718058
 C       -3.443357234     9.897554959    -0.091744058
 C       -2.983663713    10.799811640     0.874299145
 C       -2.068829256    10.354057992     1.835035903
 C       -1.624972408     9.033508530     1.827303639
Si       -3.583452744    12.542999377     0.867152621
 C       -2.624997520    13.484994418    -0.378590799
 C       -1.861999471    14.557463300    -0.127129765
 C       -1.107286679    15.289413627    -1.145833736
 C       -0.342457578    16.399033091    -0.760514380
 C        0.390072437    17.125849175    -1.686151758
 C        0.345179990    16.797861870    -3.057214898
 C       -0.419547155    15.677054423    -3.442056005
 C       -1.103077732    14.926186077    -2.495458019
 N        1.079793918    17.519752012    -4.020714221
 C        1.548936487    18.865287515    -3.623471127
 C        0.539254704    17.459702693    -5.391131676
 C        2.622547023    19.439394892    -4.565627146
 C        3.855992656    18.526054645    -4.718309788
 N        4.716377011    18.394492455    -3.527793168
 C        4.224701408    17.516306784    -2.526858487
 C        3.958877299    16.184291619    -2.906855473
 C        3.478284079    15.280123661    -1.977672276
 C        3.297660460    15.653430690    -0.635035640
 C        3.592568023    16.962569399    -0.256598412
 C        4.058131645    17.889749679    -1.185897216
 C        5.257753896    19.678821395    -3.056404605
 C        2.785680411    14.646177610     0.293487885
 C        2.560727265    14.847568946     1.598524572
Si        1.916822922    13.543438457     2.714297312
 C        1.666652124    12.010821451     1.718623378
 C        0.781462130    12.038278566     0.633057161
 C        0.571805078    10.896899943    -0.137404101
 C        1.253247469     9.709263782     0.146931351
 C        2.142289495     9.686454696     1.228482124
 C        2.346009501    10.823466640     2.007984495
 C        1.066998163     8.489544452    -0.630781078
 C        0.246826672     8.376304918    -1.688987220
 C        0.064626390     7.153309451    -2.463201668
 C        0.741282587     5.967526815    -2.165920446
 C        0.538728106     4.819511965    -2.931383538
 C       -0.355948219     4.830710452    -4.005278269
 C       -1.042538492     6.016010057    -4.300925261
 C       -0.835629598     7.161320940    -3.537027287
Si       -0.643138781     3.326902776    -5.034337324
 C        0.444192193     1.922531634    -4.452467978
 C       -2.436814966     2.822815280    -4.866775554
 C       -0.251099711     3.723165698    -6.818170412
 C        3.142333688    13.261485012     4.095568837
 C        0.280213166    14.097723236     3.425779064
 C       -5.386347524    12.588251079     0.368760275
 C       -3.416221378    13.285135999     2.573552517
 C       -0.612518455    -0.903005868    -1.518501991
 C       -0.642650334    -0.850962104     1.534051941
 H        0.593450522     2.334160592     1.738233400
 H       -0.179191032     4.636547746     1.754664044
 H       -2.657282780     3.875369100    -1.679274318
 H       -1.923758408     1.552618626    -1.723938066
 H       -2.664240507     6.023049665    -0.786960595
 H       -0.878550452     6.540332805     1.690997508
 H       -3.366763305     7.894263553    -0.859178592
 H       -4.157579396    10.188483296    -0.866292580
 H       -1.665893504    11.016036886     2.607055686
 H       -0.905887785     8.707604508     2.576720789
 H       -2.723037949    13.086589959    -1.400949668
 H       -1.744880902    14.979040352     0.880249379
 H       -0.303826028    16.690418657     0.290219913
 H        1.004854012    17.949442140    -1.332149198
 H       -0.460048501    15.367370732    -4.481176495
 H       -1.659359920    14.046648753    -2.822390245
 H        1.072860594    18.153166540    -6.058931080
 H       -0.536539403    17.695336415    -5.442388255
 H        0.703739300    16.443801945    -5.795708598
 H        5.723648381    20.206631471    -3.905797126
 H        6.057475048    19.481498552    -2.319447913
 H        4.512695511    20.346704854    -2.597098181
 H        4.116495614    15.874509598    -3.937731626
 H        3.244068121    14.261571824    -2.291670879
 H        3.460714793    17.272682595     0.779730037
 H        4.274075422    18.900843024    -0.858834950
 H        2.597296692    13.677956918    -0.198821957
 H        2.756927925    15.816702840     2.076074277
 H        0.222962009    12.941534933     0.355201912
 H       -0.134360471    10.937979733    -0.965730938
 H        2.681634847     8.772104542     1.465610220
 H        3.049865916    10.745894440     2.839818048
 H        1.656780738     7.633578967    -0.289864221
 H       -0.350146313     9.228745739    -2.026133752
 H        1.435287883     5.928599179    -1.327878767
 H        1.096266995     3.922190170    -2.647296688
 H       -1.754597813     6.082175513    -5.127326412
 H       -1.378008045     8.072770327    -3.779282296
 H        0.698881304    19.579753521    -3.550122612
 H        2.003024275    18.786419563    -2.603822427
 H        2.196768616    19.635707425    -5.567562865
 H        2.929424992    20.431062146    -4.180821870
 H        3.517499178    17.508396782    -5.028087271
 H        4.499609992    18.908344536    -5.543520630
 H        2.270473875    -1.028710531    -0.009618226
 H        2.276106912     0.506535828     0.892973136
 H        2.270659909     0.522423878    -0.887477916
 H        0.241614742     0.995507686    -5.016022380
 H        0.275630602     1.707133675    -3.381174529
 H        1.515071644     2.161314124    -4.579666855
 H       -2.687979046     2.580958498    -3.818139695
 H       -3.115049352     3.630995997    -5.191611622
 H       -2.661926678     1.932032946    -5.478138479
 H        0.797857998     4.051953124    -6.932565131
 H       -0.396756901     2.843135540    -7.468232759
 H       -0.893165541     4.533762143    -7.204734841
 H        4.129951520    12.960959374     3.700635194
 H        3.294248213    14.178067455     4.692180629
 H        2.801071900    12.469855947     4.785060198
 H       -0.433607947    14.355337286     2.621714748
 H       -0.174940038    13.302844450     4.042674845
 H        0.399942998    14.989889196     4.063978429
 H       -5.540045910    12.219801248    -0.659827990
 H       -6.000632739    11.964243311     1.042074857
 H       -5.784513645    13.617671663     0.412471646
 H       -2.364902077    13.304616863     2.913184826
 H       -3.795750614    14.321851534     2.598105473
 H       -3.993004831    12.703622533     3.315236107
 H       -0.283574570    -0.404856888    -2.448506256
 H       -0.230349412    -1.938889993    -1.545571124
 H       -1.715366766    -0.958639987    -1.539829751
 H       -0.294722176    -0.345499428     2.452435784
 H       -1.747532613    -0.851875831     1.558291798
 H       -0.307134451    -1.901541963     1.583120015

