139   

Si        0.000000000     0.000000000     0.000000000
 C        1.869377099     0.000000000     0.000000000
 C       -0.637233337     1.732807575     0.000000000
 C        0.075914369     2.755310554    -0.635261007
 C       -0.406380539     4.063747650    -0.634606489
 C       -1.615814335     4.379026265    -0.008840031
 C       -2.331556900     3.352896463     0.621665494
 C       -1.850215807     2.046057579     0.626068683
 C       -2.160131284     5.732598426     0.017809223
 C       -1.575458126     6.805086030    -0.542468837
 C       -2.123078454     8.157517964    -0.513689238
 C       -3.333065279     8.466857106     0.113643587
 C       -3.820273739     9.773416892     0.117505001
 C       -3.112328095    10.798743512    -0.518218988
 C       -1.900149559    10.491391430    -1.149068601
 C       -1.410792956     9.187641722    -1.142033290
Si       -3.752390282    12.529953619    -0.516322379
 C       -2.997166491    13.458191502     0.869341316
 C       -2.116950833    12.942298323     1.737927736
 C       -1.515813971    13.688361584     2.844246187
 C       -0.605364388    13.034750149     3.686608687
 C       -0.008043907    13.695250256     4.748144531
 C       -0.345619939    15.034443512     5.039622360
 C       -1.262045526    15.690278662     4.194853544
 C       -1.813922151    15.028402564     3.105864401
 N        0.263056682    15.701989146     6.118470839
 C        0.695387705    14.878791956     7.261920249
 C       -0.342666200    16.978234778     6.537115690
 C       -0.473611294    14.188771990     7.982818515
 C        0.043607813    13.321089474     9.141288674
 N       -1.037997015    12.699046423     9.925410427
 C       -1.908566712    13.560776758    10.617624738
 C       -1.460714200    14.824169165    11.059948073
 C       -2.316672604    15.674135042    11.741806933
 C       -3.626294598    15.286196461    12.057578386
 C       -4.058256321    14.021731239    11.647959121
 C       -3.219966527    13.165343615    10.946437483
 C       -1.652147010    11.552529491     9.232992806
 C       -4.486792419    16.224532211    12.779187062
 C       -5.752800922    15.968621229    13.135762765
Si       -6.830535113    17.141591441    14.038574148
 C       -5.897762875    18.700350323    14.366236955
 C       -5.141609198    18.848778439    15.535541822
 C       -4.439545402    20.026940263    15.778158115
 C       -4.464401735    21.079798899    14.854044639
 C       -5.213616010    20.925789943    13.684197727
 C       -5.921714100    19.749567290    13.441006308
 C       -3.712906131    22.294675439    15.152418546
 C       -3.658669919    23.374913295    14.354898278
 C       -2.907762611    24.590530091    14.651642955
 C       -2.157717103    24.747378889    15.820585360
 C       -1.454942838    25.927123595    16.063610343
 C       -1.479447028    26.974775211    15.136629845
 C       -2.229322292    26.819467849    13.964151657
 C       -2.936520265    25.643279707    13.727647268
Si       -0.548974057    28.537039031    15.458156896
 C        0.975540030    28.175441382    16.478146948
 C       -0.025114782    29.315720592    13.841265404
 C       -1.670539679    29.705946124    16.389336911
 C       -8.341710172    17.499563357    12.998746899
 C       -7.362439129    16.357925546    15.649716081
 C       -3.311987329    13.374371127    -2.124476620
 C       -5.609460583    12.536559126    -0.305054472
 C       -0.631348876    -0.854796465    -1.537038639
 C       -0.603701258    -0.906334853     1.519757543
 H        1.026241609     2.570242581    -1.143767986
 H        0.170413212     4.841970717    -1.131393790
 H       -3.275981107     3.576235861     1.114723329
 H       -2.452274606     1.288802522     1.135847757
 H       -3.115070732     5.830521297     0.543026355
 H       -0.621511425     6.708468609    -1.069051045
 H       -3.907102136     7.685662683     0.608473229
 H       -4.769665930     9.954288713     0.629755345
 H       -1.303048367    11.252411292    -1.660177497
 H       -0.465462457     8.968428458    -1.634849304
 H       -3.327653563    14.505293009     0.942863034
 H       -1.773523752    11.898719081     1.683972957
 H       -0.350875786    11.990596211     3.498049738
 H        0.719417571    13.166554761     5.356929636
 H       -1.543066145    16.722889733     4.375201688
 H       -2.507189180    15.566249731     2.457529328
 H        0.186157649    17.379063191     7.418090616
 H       -1.413571511    16.894602950     6.786408945
 H       -0.219248548    17.719200140     5.726496934
 H       -0.886028151    10.989710837     8.674042932
 H       -2.449299847    11.842398103     8.528381421
 H       -2.071767782    10.859555808     9.984693868
 H       -0.442785593    15.146987956    10.862932540
 H       -1.956530359    16.656761606    12.050858887
 H       -5.072257211    13.693485160    11.881089263
 H       -3.596839462    12.191725385    10.650191611
 H       -3.988588169    17.178423509    13.007536439
 H       -6.231430203    15.006737719    12.898226322
 H       -5.079932290    18.059232697    16.290199153
 H       -3.863363582    20.126653480    16.696184719
 H       -5.250134084    21.728081078    12.949581285
 H       -6.489783350    19.688773059    12.508142458
 H       -3.172547413    22.276563648    16.103507056
 H       -4.200006070    23.392859552    13.404281632
 H       -2.117708919    23.945210739    16.555449059
 H       -0.888610598    25.991167905    16.996986129
 H       -2.285452191    27.603281621    13.203713104
 H       -3.515829060    25.542836551    12.811638795
 H        1.434176605    14.128406660     6.899195522
 H        1.257175547    15.531982535     7.968120352
 H       -1.190254600    14.943915560     8.361146181
 H       -1.052413603    13.571178938     7.268716961
 H        0.704700438    12.511736548     8.755879226
 H        0.679771994    13.921024929     9.831511470
 H        2.268062166    -1.028590175     0.056340732
 H        2.269367993     0.559045280     0.865355356
 H        2.279493632     0.463100037    -0.914462246
 H        1.578250718    29.088173392    16.632496076
 H        1.622379915    27.430863504    15.979708397
 H        0.717100652    27.778497359    17.475361667
 H        0.566314284    28.609944477    13.230345559
 H       -0.894059363    29.632286094    13.238349923
 H        0.600352132    30.209892090    14.013096848
 H       -1.996487918    29.270238461    17.350968727
 H       -1.162636879    30.661233632    16.609932022
 H       -2.581514584    29.937527784    15.808573649
 H       -8.067251137    17.863446048    11.992517920
 H       -8.958986516    16.593783350    12.863228230
 H       -8.978254265    18.268845059    13.471648446
 H       -6.494221817    16.032301737    16.250266354
 H       -7.948410103    17.065812267    16.263001820
 H       -7.992566282    15.467930595    15.474667508
 H       -2.219352430    13.492305131    -2.236661909
 H       -3.677064069    12.795014923    -2.991464557
 H       -3.759300522    14.382328953    -2.184757073
 H       -5.908265697    12.141858068     0.682501843
 H       -6.018857483    13.559099853    -0.387105885
 H       -6.101252305    11.918206956    -1.077161022
 H       -0.286957193    -0.342009641    -2.453132322
 H       -0.282577183    -1.901147075    -1.588075914
 H       -1.735870888    -0.868580173    -1.564319806
 H       -0.316331454    -0.373333667     2.444144282
 H       -1.702439719    -1.013732110     1.523639145
 H       -0.173190104    -1.922112204     1.575617370

