139   

Si        0.000000000     0.000000000     0.000000000
 C        1.869171735     0.000000000     0.000000000
 C       -0.643571830     1.730444118     0.000000000
 C        0.070033504     2.758972672    -0.624815328
 C       -0.418982351     4.064962180    -0.622932253
 C       -1.633433815     4.371664621    -0.003118892
 C       -2.349522861     3.339674709     0.617274171
 C       -1.863240272     2.034809353     0.617550098
 C       -2.185700809     5.721560777     0.025194299
 C       -1.604355414     6.799474970    -0.528044891
 C       -2.165295716     8.146413873    -0.494226886
 C       -1.460353825     9.189223833    -1.109730414
 C       -1.959354127    10.490047905    -1.101141464
 C       -3.174090089    10.775695348    -0.469708514
 C       -3.878971047     9.736683102     0.149291470
 C       -3.378464511     8.436562857     0.137033825
Si       -3.882434934    12.478181158    -0.426985738
 C       -5.683828649    12.287126397    -0.709057173
 C       -6.640438962    12.669250090     0.146014156
 C       -8.076235878    12.507171315    -0.099172182
 C       -8.975366879    12.951596666     0.881692177
 C      -10.344038104    12.823133893     0.702075777
 C      -10.843396383    12.243591580    -0.476089038
 C       -9.954363620    11.805297898    -1.463557165
 C       -8.582840016    11.945341253    -1.274105425
 N      -12.270643491    12.151404422    -0.576137250
 C      -12.805591375    10.994233010     0.177139280
 C      -12.789115779    12.228571228    -1.953832169
 C      -12.489917891     9.621828470    -0.447630776
 C      -12.079954028     8.557024483     0.586067795
 N      -10.663566677     8.573648165     0.994266281
 C       -9.686223361     8.476508242    -0.010922460
 C       -9.993254589     7.905740550    -1.264465028
 C       -9.023651219     7.813488719    -2.250943429
 C       -7.700442471     8.203635947    -2.007543181
 C       -7.387336273     8.729856588    -0.751124491
 C       -8.353724580     8.866184662     0.235027394
 C      -10.376311351     9.502326978     2.100618553
 C       -6.719946957     8.083899011    -3.086577207
 C       -5.428374882     8.421936515    -2.980782833
Si       -4.205103051     8.270167783    -4.334336401
 C       -5.034060018     7.587750695    -5.836052578
 C       -5.534922174     6.280127398    -5.809277068
 C       -6.165007456     5.740207982    -6.928584345
 C       -6.314946551     6.493652440    -8.097061717
 C       -5.816362411     7.802136354    -8.120304990
 C       -5.183579520     8.344125267    -7.003298249
 C       -6.967656924     5.969107475    -9.292118844
 C       -7.486932325     4.734338939    -9.399920354
 C       -8.139804914     4.208819999   -10.594404563
 C       -8.289099896     4.958106002   -11.764122192
 C       -8.920445614     4.415211238   -12.883435566
 C       -9.415591726     3.108408645   -12.856835945
 C       -9.266778985     2.353692909   -11.685047914
 C       -8.636841127     2.898391529   -10.569556712
Si      -10.255820745     2.360015531   -14.319911397
 C      -10.303646036     3.564539631   -15.748435855
 C       -9.313640796     0.830262564   -14.835461093
 C      -12.003382230     1.903913088   -13.838528051
 C       -3.474798281     9.960715746    -4.646979502
 C       -2.855728828     7.079057298    -3.839627349
 C       -3.503091485    13.253584550     1.226330772
 C       -3.185923138    13.524365725    -1.807603831
 C       -0.630535114    -0.855612802    -1.536944649
 C       -0.602048797    -0.906941529     1.520124007
 H        1.025306252     2.580398379    -1.126123551
 H        0.156961427     4.847637806    -1.113558117
 H       -3.299030173     3.556504073     1.104332121
 H       -2.466394606     1.271960387     1.117734375
 H       -3.147916493     5.810276153     0.540418129
 H       -0.643807668     6.713172142    -1.043221594
 H       -0.512193130     8.984357955    -1.603113278
 H       -1.369378095    11.262830831    -1.600144439
 H       -4.830175484     9.908061959     0.666456495
 H       -3.946736184     7.643220105     0.621332346
 H       -5.934199991    11.812167911    -1.673253817
 H       -6.419802578    13.142600052     1.111695844
 H       -8.597099762    13.407127072     1.796268939
 H      -11.041149156    13.183301977     1.456551861
 H      -10.323497074    11.349381193    -2.378828545
 H       -7.902197716    11.589501382    -2.050706284
 H      -13.882651068    12.370241968    -1.905354269
 H      -12.581087344    11.346837825    -2.578356117
 H      -12.363666315    13.118299183    -2.450501868
 H      -11.237873404     9.569859190     2.783136012
 H      -10.121020275    10.521203958     1.757049410
 H       -9.530182511     9.105690706     2.691502646
 H      -10.992738600     7.538291632    -1.473389807
 H       -9.295881421     7.405821098    -3.225546297
 H       -6.364050091     9.045168694    -0.537266049
 H       -8.068627134     9.291559676     1.192045423
 H       -7.152267425     7.683883571    -4.015507371
 H       -5.008771858     8.819049485    -2.041810738
 H       -5.448330591     5.643371448    -4.922498677
 H       -6.542542789     4.720219536    -6.885087329
 H       -5.922643299     8.405595287    -9.019481391
 H       -4.815207475     9.370580866    -7.078735529
 H       -7.012589529     6.667482025   -10.132945745
 H       -7.441062976     4.035652013    -8.559258728
 H       -7.911589633     5.978077341   -11.811398803
 H       -9.007565023     5.050461781   -13.769098241
 H       -9.633684483     1.326472619   -11.606296801
 H       -8.529849269     2.297059014    -9.668537710
 H      -12.408853974    11.055925574     1.214429462
 H      -13.905795075    11.137377916     0.259284333
 H      -13.364246515     9.260067081    -1.018189598
 H      -11.678906774     9.733723869    -1.198460582
 H      -12.712722405     8.639528198     1.497356104
 H      -12.287558431     7.539175085     0.174186360
 H        2.267508864    -1.028050800     0.067912729
 H        2.269646625     0.568565102     0.858907639
 H        2.279376149     0.452572519    -0.919716728
 H      -10.797039336     3.117014899   -16.629746328
 H       -9.287218169     3.866715180   -16.057871544
 H      -10.862780346     4.480692567   -15.487518560
 H       -8.272284119     1.076957630   -15.111751507
 H       -9.270600633     0.086086979   -14.020700963
 H       -9.783439578     0.343403102   -15.707962614
 H      -12.573412585     2.793305273   -13.513736893
 H      -12.548159678     1.449613061   -14.684585058
 H      -12.018466667     1.180442209   -13.004334677
 H       -4.256114599    10.701763905    -4.891469063
 H       -2.943604744    10.325328331    -3.747007161
 H       -2.749054253     9.942628764    -5.477655776
 H       -3.269325578     6.100410211    -3.535109298
 H       -2.153902664     6.900674241    -4.672833482
 H       -2.273055825     7.467738927    -2.984552179
 H       -3.905734532    12.650634587     2.060234121
 H       -2.413319015    13.344256731     1.385843273
 H       -3.934110223    14.267514421     1.305961664
 H       -3.327116508    13.041953771    -2.792003381
 H       -3.684768191    14.510027391    -1.849912640
 H       -2.105589285    13.707707253    -1.674600311
 H       -0.286002433    -0.342745746    -2.453000307
 H       -0.280960062    -1.901710712    -1.587812992
 H       -1.735028515    -0.870207711    -1.564546789
 H       -0.311680420    -0.375099198     2.444291080
 H       -1.700982913    -1.012422576     1.526697850
 H       -0.173247142    -1.923512642     1.573935366

