139   

Si        0.000000000     0.000000000     0.000000000
 C        1.869371483     0.000000000     0.000000000
 C       -0.606883047     1.743723569     0.000000000
 C       -0.057031149     2.672252212    -0.891993276
 C       -0.503140002     3.992751634    -0.905762084
 C       -1.513189368     4.414912061    -0.035971800
 C       -2.064883276     3.483449908     0.852596208
 C       -1.618340224     2.163817453     0.871208277
 C       -2.011382374     5.786383202    -0.015136077
 C       -1.566331101     6.774134028    -0.810253136
 C       -2.064891005     8.145437768    -0.788988914
 C       -3.075164430     8.566568281     0.081388567
 C       -3.521619517     9.886435674     0.068190467
 C       -2.966603559    10.817124777    -0.819423488
 C       -1.956150419    10.398444693    -1.691370209
 C       -1.511324671     9.077885000    -1.675141951
Si       -3.582711656    12.556470557    -0.808784290
 C       -3.318050814    13.303947010     0.843141780
 C       -2.758975333    12.674653962     1.885299700
 C       -2.550991755    13.278679397     3.201886269
 C       -1.953068077    12.510539956     4.211040884
 C       -1.732885506    13.033009458     5.475197911
 C       -2.060889111    14.375583626     5.762640771
 C       -2.659967410    15.147393669     4.748447046
 C       -2.917536301    14.593527758     3.501092219
 N       -1.835157757    14.901298642     7.048501720
 C       -0.725206103    14.321417971     7.825944859
 C       -1.924094967    16.364535485     7.193762676
 C        0.648592843    14.540434243     7.172103751
 C        1.733311512    13.744141283     7.915034561
 N        3.072881958    13.903202441     7.321387106
 C        3.633723557    15.193374834     7.342128786
 C        3.343141431    16.073681225     8.406711828
 C        3.890697858    17.346102966     8.435856921
 C        4.781370544    17.776878802     7.442576355
 C        5.092793124    16.892729681     6.405840976
 C        4.540073782    15.620050542     6.352396762
 C        3.237972352    13.124396757     6.081797586
 C        5.331057144    19.131564433     7.520925901
 C        6.187862182    19.646721113     6.629393742
Si        6.899320116    21.333833176     6.688732765
 C        8.735581717    21.182182061     6.790564148
 C        9.323225099    19.996954392     7.244898212
 C       10.710433168    19.879584133     7.322867726
 C       11.539018135    20.944006467     6.956941916
 C       10.947123707    22.131724667     6.506731153
 C        9.562048876    22.251572326     6.424683982
 C       12.994886403    20.865538810     7.022513987
 C       13.683408073    19.787606157     7.434937159
 C       15.138871778    19.706060302     7.501627012
 C       15.971739397    20.765927816     7.134298214
 C       17.359190450    20.643461875     7.214263367
 C       17.943719361    19.456333146     7.664693514
 C       17.110734531    18.391034540     8.033464901
 C       15.726747049    18.515736560     7.951628445
Si       19.775601504    19.261733135     7.782349598
 C       20.643765899    20.855755416     7.335999950
 C       20.219678921    18.790616647     9.535838712
 C       20.309276847    17.914355636     6.602320515
 C        6.412948545    22.222546430     5.118779463
 C        6.297278000    22.288022524     8.176318597
 C       -2.680095233    13.593919801    -2.073742931
 C       -5.411464906    12.551024324    -1.191344128
 C       -0.637364425    -0.845051658    -1.539958875
 C       -0.611518222    -0.912887024     1.511977988
 H        0.732815256     2.401103706    -1.598306452
 H       -0.056794507     4.696383213    -1.606328636
 H       -2.852696910     3.790444929     1.538173232
 H       -2.085840855     1.482961083     1.587749723
 H       -2.803362764     5.973860645     0.716050936
 H       -0.775423286     6.586247822    -1.542388795
 H       -3.523113482     7.861220277     0.779090042
 H       -4.316346203    10.156649602     0.771185800
 H       -1.485911425    11.081019692    -2.404445486
 H       -0.724251979     8.771094003    -2.361400673
 H       -3.663588207    14.345878390     0.923342675
 H       -2.400922835    11.635948144     1.827579531
 H       -1.664951886    11.478722839     4.003686116
 H       -1.299308090    12.397011279     6.241272130
 H       -2.937351994    16.181211015     4.927786024
 H       -3.398481835    15.209184885     2.739573503
 H       -1.703841936    16.655265105     8.234604218
 H       -2.960329069    16.687369593     6.985829463
 H       -1.237033794    16.913216483     6.528377380
 H        2.749794638    12.140719034     6.186685491
 H        4.313095661    12.929899308     5.916030615
 H        2.822036270    13.622993224     5.190511181
 H        2.681947102    15.762822158     9.210195272
 H        3.632811758    18.016592878     9.256306230
 H        5.783983278    17.200624744     5.618951525
 H        4.810108925    14.967722412     5.527808550
 H        4.972141677    19.694034846     8.392914798
 H        6.528782354    19.057256096     5.762611091
 H        8.724588552    19.130876331     7.547479545
 H       11.144205804    18.945332800     7.675456876
 H       11.574746952    22.972179458     6.216726606
 H        9.156998642    23.200928863     6.064476913
 H       13.517098159    21.772193440     6.703429583
 H       13.160011874    18.881182167     7.753989705
 H       15.541807459    21.701377189     6.780665344
 H       17.958368246    21.506977808     6.912766768
 H       17.511478270    17.438835503     8.392507290
 H       15.095795920    17.677508344     8.241874604
 H       -0.744692510    14.763309175     8.847809365
 H       -0.927079126    13.234898356     7.968180998
 H        0.616590658    14.237893075     6.106486435
 H        0.903455375    15.617559525     7.161395291
 H        1.780494554    14.047090594     8.985597928
 H        1.483677819    12.658484367     7.922824307
 H        2.270228898    -1.028828466     0.021590143
 H        2.268510875     0.531315079     0.883189691
 H        2.277873623     0.496834743    -0.897372342
 H       21.739180396    20.753983679     7.437276960
 H       20.327728236    21.686030131     7.992582974
 H       20.435633496    21.153166428     6.292866523
 H       19.895294370    19.567326741    10.252185161
 H       19.738477154    17.843308970     9.836485603
 H       21.310072238    18.663140586     9.654169001
 H       20.049548084    18.170662203     5.559085604
 H       21.400590504    17.751819553     6.643836532
 H       19.818948776    16.952896596     6.836595130
 H        6.826515208    21.718451584     4.226529487
 H        5.314351180    22.252487330     5.002633357
 H        6.776932612    23.264565068     5.111288203
 H        6.569896267    21.777553956     9.118169788
 H        6.741692737    23.298859116     8.211355316
 H        5.199394367    22.406458562     8.162595220
 H       -1.596235424    13.634673965    -1.861026392
 H       -2.809625704    13.191638992    -3.093922521
 H       -3.052736703    14.633924599    -2.078262989
 H       -5.978586145    11.967663518    -0.443620571
 H       -5.826581368    13.574109737    -1.198921866
 H       -5.609910396    12.101763157    -2.181163502
 H       -0.291334785    -0.331778871    -2.454881550
 H       -0.295591334    -1.893534485    -1.594987294
 H       -1.742202750    -0.852199859    -1.565042730
 H       -0.295994646    -0.407694958     2.442523494
 H       -1.713283985    -0.986582754     1.526263738
 H       -0.212625590    -1.942704322     1.543674877

