139   

Si        0.000000000     0.000000000     0.000000000
 C        1.869304586     0.000000000     0.000000000
 C       -0.650482396     1.727633732     0.000000000
 C        0.134612574     2.796476217    -0.444039895
 C       -0.368519040     4.097333298    -0.439052715
 C       -1.668459744     4.358683412     0.002259349
 C       -2.455625158     3.285893954     0.441803850
 C       -1.955288832     1.986526527     0.439742051
 C       -2.237963608     5.702054576     0.025747204
 C       -1.592837266     6.814315972    -0.364924361
 C       -2.164907135     8.156800464    -0.340371525
 C       -3.466104612     8.412751488     0.102148365
 C       -3.973942677     9.711229406     0.109192944
 C       -3.185498064    10.783882745    -0.319966310
 C       -1.881655721    10.531817052    -0.763838567
 C       -1.380437665     9.232433187    -0.776688927
Si       -3.851418020    12.504529394    -0.313162590
 C       -2.443285902    13.671720896    -0.206967759
 C       -2.146705312    14.609151553    -1.116780140
 C       -1.014619071    15.530962596    -1.009072213
 C       -0.806264849    16.471510197    -2.028309135
 C        0.249367756    17.366319292    -1.975388788
 C        1.115557653    17.385541635    -0.859695700
 C        0.906151393    16.442194674     0.164777778
 C       -0.128621268    15.520242986     0.071389709
 N        2.182392668    18.296886475    -0.816771415
 C        2.008652364    19.587680591    -1.506117200
 C        2.941034971    18.384540411     0.439741637
 C        0.801332895    20.419611848    -1.040907834
 C        1.071560358    21.262022371     0.217646496
 N        1.776693636    22.535484421    -0.016511895
 C        1.210624396    23.425086843    -0.945759305
 C       -0.193919456    23.503361351    -1.071378263
 C       -0.769176682    24.374103104    -1.981610434
 C        0.018261843    25.232409150    -2.763509001
 C        1.406105945    25.175519652    -2.615449375
 C        2.001122600    24.295329939    -1.719887092
 C        3.242582968    22.421467082    -0.005304994
 C       -0.644475361    26.131489305    -3.709219546
 C       -0.003007515    26.994724222    -4.508422646
Si       -0.832152883    28.119660180    -5.691696393
 C       -2.658166845    27.867862363    -5.598128629
 C       -3.304215791    26.982081878    -6.466723699
 C       -4.684121527    26.795061927    -6.392323420
 C       -5.447057975    27.476946987    -5.440449794
 C       -4.796986204    28.357633737    -4.565676180
 C       -3.420055266    28.550769732    -4.641487941
 C       -6.892498332    27.312695884    -5.325808960
 C       -7.633983043    26.502665279    -6.100283466
 C       -9.079556247    26.338521925    -5.985491054
 C       -9.843668382    27.024729636    -5.037339219
 C      -11.223443402    26.837550232    -4.962798309
 C      -11.872439142    25.964021791    -5.842059478
 C      -11.109326292    25.276008705    -6.793550630
 C       -9.730385722    25.459720748    -6.861127526
Si      -13.699585714    25.715797827    -5.743762335
 C      -14.526374872    27.279784039    -5.139381958
 C      -14.379749357    25.284679182    -7.430759869
 C      -14.038399507    24.319184401    -4.549702047
 C       -0.406389726    29.885552735    -5.252942665
 C       -0.213255340    27.745736210    -7.415159890
 C       -4.845261374    12.760148361    -1.872882283
 C       -4.937127145    12.772263858     1.183979272
 C       -0.628539079    -0.862460611    -1.533805150
 C       -0.602569297    -0.897104484     1.525731582
 H        1.158400912     2.654625724    -0.801040905
 H        0.264301115     4.911943155    -0.787038646
 H       -3.471230896     3.467226562     0.789032004
 H       -2.616591441     1.190932786     0.794038410
 H       -3.266232264     5.755592499     0.395633481
 H       -0.564848462     6.761744944    -0.735407793
 H       -4.096688517     7.594772535     0.445443173
 H       -4.998750920     9.849139732     0.464430134
 H       -1.221869118    11.334542059    -1.110334715
 H       -0.365599601     9.054595718    -1.128016824
 H       -1.831409776    13.544602734     0.700333018
 H       -2.739526708    14.759430051    -2.029017371
 H       -1.479103250    16.493719899    -2.886621900
 H        0.403379966    18.055123314    -2.801373812
 H        1.552071783    16.413763882     1.035921973
 H       -0.255678933    14.787582827     0.870474651
 H        3.734373676    19.145086157     0.353945822
 H        3.446746597    17.417073014     0.621608978
 H        2.316623100    18.625640374     1.315859642
 H        3.561071216    21.690109065     0.755540078
 H        3.674544018    23.396398212     0.291180201
 H        3.672426579    22.127689235    -0.976952852
 H       -0.834134988    22.877152774    -0.456017785
 H       -1.855833697    24.401412602    -2.079797118
 H        2.042238581    25.832274799    -3.210536915
 H        3.082763308    24.285598850    -1.639749849
 H       -1.740125642    26.031541236    -3.703249015
 H        1.093970647    27.078700301    -4.497478232
 H       -2.760553973    26.416084932    -7.228602279
 H       -5.163929959    26.106340817    -7.085181394
 H       -5.372681507    28.898494396    -3.816862101
 H       -2.968396363    29.250689991    -3.932240484
 H       -7.360018591    27.912747690    -4.539456160
 H       -7.167018523    25.902812469    -6.887054650
 H       -9.363922278    27.714351060    -4.344882657
 H      -11.766285708    27.400897946    -4.198625828
 H      -11.561227871    24.581531622    -7.507124847
 H       -9.154650766    24.914197255    -7.606640964
 H        2.948471976    20.173277532    -1.405911655
 H        1.915987748    19.372851138    -2.598498453
 H        0.473832949    21.080724264    -1.869821090
 H       -0.063372342    19.750599686    -0.851637152
 H        0.101977883    21.507111903     0.715973081
 H        1.642234445    20.671023337     0.966559993
 H        2.267471600    -1.028643685     0.060191289
 H        2.270343903     0.561555501     0.863104478
 H        2.278968781     0.458221283    -0.917272187
 H      -15.625472116    27.170570259    -5.125748722
 H      -14.286298100    28.137337944    -5.793889660
 H      -14.208599994    27.542636810    -4.115280457
 H      -14.111302300    26.051894823    -8.179504322
 H      -13.994041134    24.315652252    -7.792786261
 H      -15.481969438    25.213956126    -7.410534440
 H      -13.645387898    24.546028432    -3.542264292
 H      -15.121329242    24.127759307    -4.450808233
 H      -13.561765036    23.379890202    -4.883427685
 H       -0.659160772    30.117610051    -4.202861390
 H        0.672526696    30.082852708    -5.382491408
 H       -0.955238393    30.598643371    -5.894139092
 H       -0.341223900    26.678945496    -7.671836450
 H       -0.755701963    28.340696705    -8.171716562
 H        0.861427456    27.979913955    -7.515544368
 H       -4.223407323    12.616953940    -2.775489565
 H       -5.682934058    12.042427027    -1.935875893
 H       -5.273437629    13.777237438    -1.917171324
 H       -4.400408303    12.532003473     2.119514495
 H       -5.265610604    13.825429274     1.252252161
 H       -5.843474149    12.143426418     1.148458628
 H       -0.283911946    -0.352783058    -2.451719015
 H       -0.277675249    -1.908286905    -1.580499102
 H       -1.732860028    -0.878190728    -1.562947325
 H       -0.306462986    -0.362700873     2.446725627
 H       -1.702247946    -0.993470276     1.536746041
 H       -0.180528996    -1.916115948     1.583460670

