139   

Si        0.000000000     0.000000000     0.000000000
 C        1.871788578     0.000000000     0.000000000
 C       -0.570569085     1.756194402     0.000000000
 C       -0.327394700     2.547794413    -1.129252189
 C       -0.743206150     3.876720954    -1.165233394
 C       -1.417332871     4.447505499    -0.080677940
 C       -1.665830098     3.652463993     1.044372002
 C       -1.251088487     2.321766071     1.083693997
 C       -1.865711393     5.837605529    -0.088510943
 C       -1.674527012     6.678103218    -1.119458930
 C       -2.104017314     8.070354679    -1.170773611
 C       -1.821523111     8.807289863    -2.329680044
 C       -2.205435692    10.140963245    -2.439897653
 C       -2.856657493    10.780689858    -1.378387480
 C       -3.126225828    10.052228632    -0.214578299
 C       -2.753266901     8.711593626    -0.111972461
Si       -3.363865839    12.549956519    -1.529600849
 C       -4.965017314    12.753066003    -0.662272017
 C       -5.187521337    13.569356414     0.376373294
 C       -6.481730362    13.708304252     1.048046071
 C       -6.594495438    14.596705413     2.127475644
 C       -7.797162283    14.763057643     2.795016380
 C       -8.918564498    13.983320365     2.444275663
 C       -8.805943727    13.086132914     1.368785929
 C       -7.610115621    12.975333405     0.669902375
 N      -10.128901369    14.181434865     3.148033685
 C      -10.032382246    14.181931073     4.621715276
 C      -11.297246472    13.426187795     2.663439804
 C       -9.621772860    12.830415394     5.236687161
 C       -8.149823302    12.834143643     5.696444693
 N       -7.545421893    11.488554665     5.803582875
 C       -7.351478606    10.877055477     4.527033431
 C       -6.350942939    11.432460746     3.709355641
 C       -6.103428140    10.894770056     2.457540348
 C       -6.804082590     9.766940645     2.003746633
 C       -7.779725687     9.208358454     2.831252548
 C       -8.057248667     9.753499964     4.082027871
 C       -8.210497891    10.643620823     6.810571802
 C       -6.499218168     9.242478132     0.669773170
 C       -7.101286605     8.175256789     0.131871157
Si       -6.766544213     7.470934557    -1.526619614
 C       -6.204882751     5.733208692    -1.265768286
 C       -5.862738731     5.286540542     0.016543320
 C       -5.438510118     3.975564433     0.216405202
 C       -5.326375675     3.088365343    -0.861278057
 C       -5.654454513     3.541504538    -2.142257476
 C       -6.085437258     4.851926090    -2.345040900
 C       -4.877564715     1.725555286    -0.599376994
 C       -4.732114544     0.774297463    -1.536883868
 C       -4.282584704    -0.586556183    -1.266258875
 C       -3.957257716    -1.028218975     0.019375091
 C       -3.531141309    -2.338125564     0.235916225
 C       -3.425187211    -3.237758083    -0.829982521
 C       -3.751080529    -2.798194175    -2.119075044
 C       -4.172874027    -1.488258296    -2.333309600
Si       -2.860914324    -4.970265684    -0.539136679
 C       -3.322458587    -5.514077443     1.188884812
 C       -3.657863626    -6.123864037    -1.774590712
 C       -1.002116105    -5.007785847    -0.736985914
 C       -8.384367393     7.461501118    -2.467822511
 C       -5.504728244     8.433438675    -2.494238635
 C       -2.028990674    13.616135766    -0.777958556
 C       -3.622296586    13.010845975    -3.321400777
 C       -0.611846443    -0.857960645    -1.538282326
 C       -0.608853822    -0.898103170     1.521907862
 H        0.188588141     2.158674429    -2.011593028
 H       -0.542618364     4.468800047    -2.056571109
 H       -2.192582699     4.074412471     1.897901313
 H       -1.476288267     1.748476920     1.986227893
 H       -2.388527948     6.163516483     0.814440132
 H       -1.159113157     6.333223337    -2.022064156
 H       -1.304738357     8.330341054    -3.160311817
 H       -1.971417362    10.656545595    -3.374871381
 H       -3.622705601    10.505002992     0.650365781
 H       -2.980702909     8.163044836     0.801273150
 H       -5.774236623    12.131604525    -1.080778264
 H       -4.405013466    14.204948185     0.811318954
 H       -5.728987920    15.183246974     2.436491009
 H       -7.875645518    15.498657911     3.591013718
 H       -9.642247074    12.458787561     1.075510683
 H       -7.553744307    12.277815252    -0.168471855
 H      -12.198848026    13.769961440     3.198747176
 H      -11.211628150    12.335078203     2.791121400
 H      -11.456279372    13.649212472     1.592814926
 H       -8.144123646    11.148077115     7.790151864
 H       -7.663336428     9.688210201     6.897438148
 H       -9.268623872    10.425828864     6.603052318
 H       -5.782241671    12.291024150     4.062676030
 H       -5.341791525    11.353716710     1.822714497
 H       -8.341690624     8.334279719     2.501354630
 H       -8.829150038     9.304763800     4.699071041
 H       -5.721723642     9.812926820     0.142562589
 H       -7.882512852     7.626206211     0.682947693
 H       -5.915071916     5.940305870     0.893294053
 H       -5.181431673     3.642500069     1.219978168
 H       -5.568903823     2.872319444    -2.996005872
 H       -6.323514337     5.152272844    -3.368651202
 H       -4.646953103     1.514315081     0.449406484
 H       -4.951198607     0.986092851    -2.586859247
 H       -4.036956937    -0.347410822     0.865612279
 H       -3.294659644    -2.627426914     1.263781159
 H       -3.689579671    -3.457476103    -2.988893120
 H       -4.422417298    -1.164671441    -3.341973456
 H       -9.327056564    14.986935940     4.926668614
 H      -11.024611709    14.495666183     5.020022630
 H      -10.281571402    12.582735863     6.085881000
 H       -9.773748547    12.017683321     4.497973942
 H       -7.528836236    13.428673746     4.985407894
 H       -8.053563543    13.328042723     6.687612194
 H        2.272066364    -1.028457624     0.009180793
 H        2.273808016     0.523858977     0.885248813
 H        2.273419998     0.508093235    -0.894272175
 H       -3.057548247    -6.572987658     1.357841798
 H       -4.409087528    -5.413044069     1.362942322
 H       -2.803796617    -4.917736860     1.959652376
 H       -4.760155745    -6.058070994    -1.729355164
 H       -3.352785622    -5.891634873    -2.809860510
 H       -3.380524806    -7.174593833    -1.577020033
 H       -0.510273755    -4.310397124    -0.034605650
 H       -0.596584844    -6.016709944    -0.546841778
 H       -0.700924209    -4.712812029    -1.758077112
 H       -9.147091438     6.850721744    -1.953539509
 H       -8.790714047     8.482912269    -2.573488463
 H       -8.256407171     7.045794963    -3.482157971
 H       -4.530142486     8.471751192    -1.967381049
 H       -5.317200292     7.976961000    -3.481983324
 H       -5.828903595     9.475861307    -2.662750444
 H       -1.862108436    13.366997491     0.285825472
 H       -1.065305408    13.477189958    -1.300457511
 H       -2.286117562    14.688411963    -0.836870389
 H       -4.331811111    12.325671574    -3.818886277
 H       -4.032712098    14.033209341    -3.412549749
 H       -2.676593497    12.984454391    -3.889941569
 H       -0.262556233    -0.356549866    -2.456642658
 H       -0.272006456    -1.907907612    -1.576949380
 H       -1.719647325    -0.873032423    -1.572421632
 H       -0.181027653    -0.469679015     2.444624306
 H       -1.709486986    -0.846044890     1.601669812
 H       -0.330136571    -1.966403549     1.488922335

