139   

Si        0.000000000     0.000000000     0.000000000
 C        1.869300458     0.000000000     0.000000000
 C       -0.641474012     1.731111862     0.000000000
 C        0.066360049     2.753436263    -0.641457088
 C       -0.418479916     4.060876273    -0.641244504
 C       -1.623319998     4.376040608    -0.006756834
 C       -2.333230955     3.350230294     0.630914012
 C       -1.850546362     2.043822319     0.633715531
 C       -2.170072609     5.728673782     0.019793935
 C       -1.591985102     6.800301784    -0.548873086
 C       -2.141694463     8.151856071    -0.520364990
 C       -3.347597915     8.460552254     0.116140436
 C       -3.837085159     9.765456376     0.119610996
 C       -3.137490260    10.790297854    -0.528428522
 C       -1.931351862    10.483475381    -1.168592055
 C       -1.438007436     9.180530522    -1.159545436
Si       -3.803879412    12.511111746    -0.511311963
 C       -3.357722668    13.322534309     1.068209306
 C       -2.653694337    12.726402156     2.040170569
 C       -2.286901000    13.356664416     3.308886856
 C       -1.545174728    12.612104558     4.238491100
 C       -1.169472841    13.155813413     5.455487109
 C       -1.559851510    14.467801720     5.798337354
 C       -2.304659470    15.214824164     4.869149204
 C       -2.646150978    14.665623600     3.639164525
 N       -1.159008048    14.987374475     7.044944348
 C       -1.281435132    14.100268349     8.220993468
 C       -1.489391193    16.394379295     7.309230587
 C       -2.508069590    13.167872953     8.243910880
 C       -3.532074879    13.467053318     9.352200880
 N       -4.394109175    14.649369302     9.150256297
 C       -4.898582284    14.855745534     7.853497410
 C       -5.380273508    13.744314414     7.126537965
 C       -5.883726954    13.910182034     5.848064254
 C       -5.947760663    15.179403771     5.253174219
 C       -5.505226933    16.280742241     5.988567936
 C       -5.011370443    16.134441584     7.279532397
 C       -3.955755647    15.832860524     9.904022028
 C       -6.489413348    15.297311421     3.898666560
 C       -6.598499144    16.454735615     3.233232201
Si       -7.270618703    16.636054421     1.540340922
 C       -8.736220081    17.753947385     1.599770915
 C       -9.418516483    17.964279275     2.804128083
 C      -10.525295677    18.808438597     2.849162202
 C      -10.982217936    19.453842320     1.692714687
 C      -10.301873642    19.237008457     0.490834354
 C       -9.191018338    18.395635837     0.443152979
 C      -12.146132897    20.328795373     1.790671287
 C      -12.682041364    21.007929833     0.762365130
 C      -13.846043817    21.882646557     0.861502847
 C      -14.526434716    22.099635146     2.062922061
 C      -15.634913321    22.944328353     2.111868280
 C      -16.083269933    23.598754467     0.959534407
 C      -15.402772632    23.383469080    -0.245469718
 C      -14.300683624    22.533361429    -0.293030237
Si      -17.550700680    24.717632533     1.021884145
 C      -17.703456607    25.482766474     2.720950895
 C      -17.369038656    26.083007547    -0.242230523
 C      -19.075404788    23.705156191     0.645392084
 C       -5.924865953    17.335505774     0.450696926
 C       -7.847047955    14.989271309     0.873923053
 C       -3.080189574    13.511915976    -1.914670426
 C       -5.662384222    12.455432355    -0.697721588
 C       -0.630435277    -0.855820419    -1.536957029
 C       -0.602041896    -0.907345216     1.520007057
 H        1.013874724     2.569151273    -1.155428325
 H        0.153271357     4.838788311    -1.144322471
 H       -3.274214409     3.573393355     1.130585347
 H       -2.448299097     1.286504175     1.148430881
 H       -3.120977769     5.826294147     0.552300238
 H       -0.641795878     6.703393375    -1.082242620
 H       -3.914789636     7.679593780     0.619182427
 H       -4.781672643     9.946925384     0.641080199
 H       -1.341192739    11.243544390    -1.688448237
 H       -0.496026230     8.962157603    -1.659174394
 H       -3.716778075    14.357711310     1.170296187
 H       -2.288782406    11.691597298     1.955445291
 H       -1.249284819    11.590216870     3.997872112
 H       -0.569891051    12.572363758     6.148133304
 H       -2.644638214    16.218479406     5.106201120
 H       -3.226945430    15.265915594     2.936453726
 H       -1.006650819    16.718801581     8.245829768
 H       -2.572241308    16.591683935     7.375082597
 H       -1.066669272    17.021120942     6.501168160
 H       -3.758909556    15.545258413    10.951697427
 H       -4.775099949    16.574521079     9.932637688
 H       -3.052373084    16.313704777     9.498744062
 H       -5.361422458    12.754246958     7.574157148
 H       -6.234219902    13.036776798     5.295909971
 H       -5.555666721    17.280899140     5.554359253
 H       -4.704069719    17.019527385     7.826444772
 H       -6.797577906    14.333019062     3.471931426
 H       -6.273670347    17.405269318     3.685347676
 H       -9.108536365    17.483194864     3.738071538
 H      -11.040629021    18.964442413     3.795247299
 H      -10.636788737    19.726260439    -0.421928247
 H       -8.698527019    18.266272734    -0.524339106
 H      -12.578230021    20.404318326     2.793089813
 H      -12.251030182    20.932676050    -0.240361863
 H      -14.194997937    21.606389121     2.975079660
 H      -16.126514494    23.072090701     3.080326596
 H      -15.707001283    23.867374499    -1.177647164
 H      -13.786738561    22.376860523    -1.239724496
 H       -0.350257936    13.481796697     8.235367540
 H       -1.249012255    14.714392828     9.145969453
 H       -3.015056227    13.178432406     7.254543755
 H       -2.164853523    12.120755595     8.359578343
 H       -4.220558085    12.590688808     9.451817162
 H       -3.015605213    13.556412384    10.332665813
 H        2.267687668    -1.028617534     0.057858800
 H        2.269531556     0.560251331     0.864480231
 H        2.279598747     0.461728089    -0.915083493
 H      -18.541600652    26.201070107     2.761025891
 H      -16.783909453    26.029816979     2.997380803
 H      -17.885225319    24.720618642     3.498723367
 H      -16.431995921    26.648284544    -0.088252949
 H      -17.354908831    25.688319350    -1.273108468
 H      -18.204955255    26.801973506    -0.175732762
 H      -19.203738036    22.885282954     1.374925133
 H      -19.988490039    24.325154291     0.675007030
 H      -19.015342408    23.245571120    -0.357554691
 H       -5.594877531    18.328896276     0.804319727
 H       -5.038074003    16.674837721     0.440822410
 H       -6.264971229    17.450390067    -0.592901988
 H       -8.723586598    14.618249693     1.436152855
 H       -8.145989277    15.064361418    -0.185969145
 H       -7.052839916    14.224263148     0.950883317
 H       -1.990035147    13.646978824    -1.796627733
 H       -3.254678045    13.020208421    -2.888088881
 H       -3.532083995    14.518457255    -1.964184230
 H       -6.152513498    12.049250400     0.204594879
 H       -6.077486510    13.462596200    -0.883573978
 H       -5.953357661    11.816803439    -1.551351680
 H       -0.285191817    -0.343548277    -2.453018710
 H       -0.281651568    -1.902188396    -1.587205335
 H       -1.734921206    -0.869622865    -1.564943844
 H       -0.314976507    -0.373701068     2.444122492
 H       -1.700656523    -1.015958998     1.524326837
 H       -0.170404645    -1.922589291     1.575683612

