187   

Si        0.000000000     0.000000000     0.000000000
 C        1.865372153     0.000000000     0.000000000
 C       -0.680595189     1.710255689     0.000000000
 C        0.135640064     2.814440466    -0.264341865
 C       -0.393730545     4.104978726    -0.261015245
 C       -1.749708025     4.320502594    -0.002027579
 C       -2.567125892     3.212415042     0.259004944
 C       -2.041064595     1.923679648     0.260649911
 C       -2.347786927     5.651301805     0.012044023
 C       -1.679126620     6.794261579    -0.216922052
 C       -2.279634946     8.124132572    -0.202279905
 C       -1.464206541     9.234617005    -0.458536822
 C       -1.993186468    10.522691974    -0.455090198
 C       -3.355882113    10.728552316    -0.206461184
 C       -4.172716764     9.621881528     0.048210387
 C       -3.637357785     8.334442286     0.054150460
Si       -4.066738142    12.425321509    -0.199196778
 C       -5.868820858    12.338267034    -0.485744737
 C       -6.812952409    12.938098837     0.251189938
 C       -8.248288058    12.839515122    -0.017235943
 C       -9.144817637    13.512960873     0.825278740
 C      -10.512023149    13.451814858     0.614615365
 C      -11.033869497    12.743627059    -0.491363319
 C      -10.134014061    12.067731742    -1.338822875
 C       -8.769572999    12.102991522    -1.084518838
 N      -12.418821891    12.692148820    -0.689094986
 C      -13.214428279    13.875689664    -0.327288700
 C      -12.914896436    11.952703770    -1.856319836
 C      -12.720861360    15.213574370    -0.908909168
 C      -13.039999507    15.419711527    -2.400137090
 N      -14.466192361    15.574457530    -2.751376349
 C      -15.163495445    14.359197077    -2.972234501
 C      -14.730476624    13.555378825    -4.046383375
 C      -15.366720598    12.355868364    -4.318368808
 C      -16.467995658    11.934441594    -3.556781887
 C      -16.910800753    12.749110906    -2.512588203
 C      -16.279735338    13.955226709    -2.225647504
 C      -15.168090166    16.583909415    -1.944604841
 C      -17.102812335    10.657045649    -3.888163957
 C      -18.157377562    10.149930732    -3.236004369
Si      -18.948807720     8.553923306    -3.651724350
 C      -18.800998414     8.157802153    -5.441373296
 C      -18.809651756     9.193494701    -6.385174568
 C      -18.698700420     8.910892244    -7.743820188
 C      -18.589958715     7.588630489    -8.194583351
 C      -18.590859098     6.557322880    -7.251457132
 C      -18.697728161     6.837158225    -5.889432464
 C      -18.475975275     7.343481296    -9.628426724
 C      -18.361763287     6.128363557   -10.190851606
 C      -18.247828380     5.884308809   -11.624977331
 C      -18.246967311     6.915660817   -12.567572782
 C      -18.135838892     6.636992021   -13.929735515
 C      -18.029472377     5.317232971   -14.379465826
 C      -18.030983840     4.280778658   -13.436018245
 C      -18.136535775     4.562403730   -12.076812776
Si      -17.882087540     4.932711185   -16.173930255
 C      -18.294947646     6.414571303   -17.228835881
 C      -16.101495558     4.382658838   -16.560761712
 C      -19.060228350     3.492033032   -16.574292880
 C      -18.136643199     7.187938272    -2.605865907
 C      -20.792681415     8.659678328    -3.198319552
 C       -3.669107985    13.256782067     1.464278080
 C       -3.279982237    13.449016149    -1.597469201
 C       -0.609162303    -0.924632660    -1.548443481
 C       -0.657914857    -0.903099642     1.541255149
 H        1.203331506     2.708693116    -0.475180829
 H        0.264063998     4.947937521    -0.464702430
 H       -3.626037565     3.358259850     0.464310261
 H       -2.726819068     1.099004700     0.474704443
 H       -3.419935109     5.668187310     0.229681983
 H       -0.607279737     6.778110964    -0.434456125
 H       -0.404662108     9.092004689    -0.661015799
 H       -1.308736015    11.350988009    -0.656963112
 H       -5.244054683     9.725651532     0.250916392
 H       -4.291852138     7.489149504     0.258953701
 H       -6.137968020    11.730240623    -1.365720623
 H       -6.579041867    13.556019368     1.128008631
 H       -8.762428014    14.084894802     1.671297655
 H      -11.183235254    13.948136810     1.308773649
 H      -10.493434334    11.509387171    -2.196963910
 H       -8.095639322    11.556295321    -1.746541310
 H      -14.021000498    11.944205953    -1.858975255
 H      -12.589442458    10.898395329    -1.784524450
 H      -12.578333691    12.368100698    -2.820215929
 H      -14.600426620    17.530130050    -1.985824981
 H      -15.310539807    16.307924037    -0.888303860
 H      -16.158236295    16.779302269    -2.394445604
 H      -13.900426250    13.890354445    -4.665670371
 H      -15.017013057    11.739855917    -5.148170905
 H      -17.767153454    12.444561317    -1.909622231
 H      -16.651368434    14.567962277    -1.410005848
 H      -16.631429913    10.148327649    -4.741353649
 H      -18.606510906    10.674319831    -2.378817190
 H      -18.897900227    10.245110964    -6.091785111
 H      -18.700498847     9.728726369    -8.462184521
 H      -18.508870554     5.521379289    -7.574946882
 H      -18.693832782     5.988412976    -5.200108008
 H      -18.489534851     8.244404248   -10.249001365
 H      -18.348475309     5.226955152    -9.571106830
 H      -18.332698833     7.951430536   -12.243969729
 H      -18.140186860     7.485874553   -14.619111026
 H      -17.951517455     3.230064867   -13.729057187
 H      -18.134604000     3.743962368   -11.359398160
 H      -14.274208273    13.698816806    -0.622414664
 H      -13.222104853    13.939748428     0.787971282
 H      -13.143618102    16.043285253    -0.312449967
 H      -11.620802219    15.293373483    -0.775307909
 H      -12.527740073    16.346046157    -2.756605003
 H      -12.606887801    14.582649485    -2.991946247
 H        2.263022803    -1.029818197     0.040679088
 H        2.261749478     0.543397690     0.876978042
 H        2.274607718     0.478814140    -0.906793287
 H      -18.244032168     6.164482425   -18.303682441
 H      -17.598202860     7.252057839   -17.049246270
 H      -19.318442542     6.776063322   -17.020819336
 H      -16.068922388     4.219547018   -17.676872527
 C      -15.060394463     5.459903809   -16.205259737
 C      -15.700070293     3.064047755   -15.875743099
 H      -18.717519663     2.625838601   -15.936622396
 C      -20.520463557     3.803383862   -16.199432157
 C      -19.004747284     3.044224262   -18.045658308
 H      -18.691112547     6.235801915    -2.848577575
 C      -16.653301048     6.984485211    -2.962713671
 C      -18.255876254     7.432522262    -1.090981436
 H      -20.831305698     8.892662862    -2.095181182
 C      -21.513034568     9.792232923    -3.951731244
 C      -21.548734657     7.340989967    -3.435544410
 H       -4.211366216    14.246293866     1.453943619
 C       -4.182030175    12.440520395     2.664881454
 C       -2.168969595    13.538051142     1.663188341
 H       -2.177373395    13.500832640    -1.363964440
 C       -3.442774748    12.785590542    -2.976654370
 C       -3.820190111    14.888331175    -1.665539701
 H       -0.109342438    -1.935735335    -1.515488144
 C       -2.131813700    -1.147141224    -1.576717581
 C       -0.188700658    -0.227149770    -2.855251736
 H       -1.782466654    -0.904029140     1.442258757
 C       -0.192474242    -2.366604075     1.641109662
 C       -0.301796600    -0.172746014     2.848835392
 H      -15.226410652     6.414539115   -16.720790151
 H      -14.055410669     5.123686298   -16.498314852
 H      -15.012441811     5.668116631   -15.126664250
 H      -16.344050790     2.218066283   -16.147070327
 H      -15.685166981     3.139859132   -14.779349240
 H      -14.680477889     2.780886035   -16.175782149
 H      -20.647707580     4.082377827   -15.143593096
 H      -21.148418757     2.915387141   -16.359726484
 H      -20.958396190     4.605383517   -16.808309620
 H      -18.002157166     2.736121822   -18.369247037
 H      -19.358622512     3.815865520   -18.742119420
 H      -19.657500722     2.172093961   -18.196914787
 H      -16.486865790     6.747891987    -4.022837246
 H      -16.239772189     6.141428639    -2.391279626
 H      -16.031184811     7.857783234    -2.717869913
 H      -19.293093664     7.515405266    -0.742310430
 H      -17.716673744     8.330883456    -0.759071266
 H      -17.814464181     6.589561733    -0.539404384
 H      -21.065825636    10.781637507    -3.785235093
 H      -22.556844458     9.865127669    -3.614492132
 H      -21.553369827     9.624697051    -5.037873394
 H      -21.150411999     6.498986749    -2.855191648
 H      -21.565005248     7.040653239    -4.493204574
 H      -22.600534060     7.450881367    -3.133513196
 H       -5.259335936    12.228586618     2.624724156
 H       -4.010265780    12.993699937     3.598802975
 H       -3.663159781    11.477483198     2.777594189
 H       -1.745241843    14.203170926     0.900182870
 H       -1.561388783    12.622356640     1.687170921
 H       -2.005544411    14.037445556     2.629305946
 H       -3.041431908    11.763117876    -3.018297401
 H       -2.897145754    13.360401984    -3.738320530
 H       -4.488446695    12.745496193    -3.311351382
 H       -3.657606065    15.458302232    -0.741766134
 H       -4.893863090    14.931656355    -1.898367997
 H       -3.309682725    15.444722910    -2.464462860
 H       -2.505196912    -1.717627630    -0.716963299
 H       -2.409915071    -1.724082302    -2.470831339
 H       -2.699560559    -0.207577621    -1.631596598
 H        0.897240995    -0.102102004    -2.953807547
 H       -0.650114667     0.763370383    -2.977978197
 H       -0.508641850    -0.824594460    -3.720944391
 H       -0.471957438    -2.972566359     0.769644277
 H       -0.658037890    -2.849473742     2.512679544
 H        0.892418044    -2.462327323     1.781054000
 H       -0.654551524     0.868350503     2.873998322
 H        0.776675591    -0.161395432     3.054732780
 H       -0.774635046    -0.677499053     3.703342722

