187   

Si        0.000000000     0.000000000     0.000000000
 C        1.865931169     0.000000000     0.000000000
 C       -0.678556121     1.710959379     0.000000000
 C        0.163579658     2.825302889     0.064645307
 C       -0.365785458     4.115851278     0.063762204
 C       -1.746318040     4.321513895     0.005844740
 C       -2.589297625     3.203727721    -0.059061942
 C       -2.063754061     1.914994524    -0.065772691
 C       -2.345254001     5.651294875     0.002551008
 C       -1.654681105     6.803082718     0.053604344
 C       -2.263035477     8.128733963     0.049818106
 C       -3.646326105     8.316000673    -0.008546061
 C       -4.191239545     9.598959310    -0.010255805
 C       -3.366127917    10.725543982     0.057800463
 C       -1.978146866    10.539526464     0.115936820
 C       -1.434652380     9.257167823     0.105953912
Si       -4.075918688    12.425862334     0.056195552
 C       -3.108410826    13.489279781     1.190504234
 C       -3.649304749    14.263253825     2.140823089
 C       -2.897750819    15.119554246     3.056964619
 C       -3.616765356    15.871222068     3.999303608
 C       -2.970544512    16.701445135     4.895806038
 C       -1.567713533    16.862448564     4.848552241
 C       -0.846404582    16.109529418     3.899553856
 C       -1.507192275    15.237815710     3.041181583
 N       -0.904492122    17.701260037     5.752543299
 C       -1.665939639    18.709221099     6.506758725
 C        0.459052434    18.129994018     5.411798143
 C       -1.343474239    18.641378156     8.015233016
 C       -1.503437952    17.224954334     8.608368981
 N       -2.831222013    16.666985370     8.307941945
 C       -2.938230575    15.373391685     7.782480106
 C       -1.825916787    14.727355643     7.198385770
 C       -1.941551667    13.450276075     6.682389269
 C       -3.175414214    12.781636732     6.667268924
 C       -4.283752649    13.429889280     7.214475207
 C       -4.178811991    14.703578779     7.762158834
 C       -3.879491941    17.113969706     9.235797521
 C       -3.220707405    11.432666695     6.105520705
 C       -4.317992995    10.669046618     6.020467427
Si       -4.343319697     8.981042675     5.310721767
 C       -5.709492554     8.859674984     4.080347111
 C       -6.952679974     9.449341172     4.348494195
 C       -7.991287244     9.362938800     3.424750890
 C       -7.819697966     8.675054034     2.216379357
 C       -6.581994272     8.083033466     1.953115175
 C       -5.539137068     8.174796124     2.873716429
 C       -8.932332131     8.607732148     1.275716111
 C       -8.883542265     7.984026572     0.086345731
 C       -9.990176405     7.911194713    -0.860778188
 C      -11.234152420     8.497187564    -0.613908698
 C      -12.265040928     8.402655053    -1.548609984
 C      -12.074007260     7.715015595    -2.751085073
 C      -10.826431689     7.127598272    -3.001823983
 C       -9.797922039     7.228228610    -2.069365378
Si      -13.424130631     7.581087830    -3.994980713
 C      -15.071832358     8.080421465    -3.276876967
 C      -13.032969616     8.711921647    -5.475445005
 C      -13.493307667     5.781189518    -4.610843931
 C       -2.636512959     8.606820027     4.554189879
 C       -4.673406173     7.699339596     6.678723140
 C       -3.967273262    13.096059213    -1.721844478
 C       -5.902497213    12.460940111     0.593312552
 C       -0.669721204    -0.889883938    -1.542794486
 C       -0.585957438    -0.936697831     1.551016246
 H        1.251454559     2.727584996     0.115443716
 H        0.311712976     4.966425220     0.110989900
 H       -3.667987347     3.341892424    -0.106007192
 H       -2.769951460     1.081835648    -0.125438281
 H       -3.438502590     5.659210009    -0.045972215
 H       -0.562631124     6.798095496     0.102293626
 H       -4.311942876     7.456666959    -0.059928673
 H       -5.283586243     9.680364592    -0.053359901
 H       -1.282367529    11.381601478     0.172018873
 H       -0.355088965     9.132873216     0.146541686
 H       -2.020656545    13.455484926     1.034817452
 H       -4.734355354    14.313815214     2.315943035
 H       -4.703108759    15.782847655     4.046794111
 H       -3.557282899    17.214614356     5.656499710
 H        0.232728053    16.185934540     3.838087573
 H       -0.921851380    14.647898399     2.335107194
 H        0.843183935    18.832004196     6.169382848
 H        0.519044195    18.617182812     4.423893992
 H        1.131315652    17.252202583     5.415528632
 H       -3.641156192    18.112494329     9.636131807
 H       -4.020438807    16.423885067    10.084825315
 H       -4.837004677    17.205144816     8.690570661
 H       -0.866617288    15.238557706     7.130676669
 H       -1.060881840    12.969972319     6.253509299
 H       -5.255987414    12.935998611     7.210537909
 H       -5.066231272    15.171875806     8.171317247
 H       -2.237301561    11.096948843     5.743903065
 H       -5.290735646    11.027213022     6.386728255
 H       -7.146046127     9.997743349     5.274939975
 H       -8.946616677     9.832159252     3.647984272
 H       -6.423086790     7.539113210     1.024158560
 H       -4.589249281     7.698498154     2.603891229
 H       -9.844352377     9.112764456     1.604675029
 H       -7.969500805     7.478797495    -0.240508337
 H      -11.409737118     9.035067007     0.315931908
 H      -13.216222864     8.880898545    -1.299241513
 H      -10.619610337     6.578081211    -3.924532840
 H       -8.834965256     6.767953431    -2.283151853
 H       -1.455608921    19.732659732     6.124654608
 H       -2.764133451    18.552323082     6.382580618
 H       -0.306954370    18.979838640     8.197963859
 H       -2.004189442    19.352395675     8.544519315
 H       -0.697082809    16.581219995     8.182111390
 H       -1.325555412    17.256458600     9.706121083
 H        2.263718767    -1.030506953    -0.004644208
 H        2.272237117     0.509862529     0.891262795
 H        2.264508276     0.512309480    -0.894210957
 H      -15.881600221     7.962427162    -4.018848749
 H      -15.072760312     9.134515458    -2.948557330
 H      -15.328709884     7.454268133    -2.403178767
 H      -13.921525248     8.628503666    -6.165819540
 C      -12.883752533    10.188812803    -5.066051792
 C      -11.778482858     8.289220245    -6.260571067
 H      -12.484825556     5.573988563    -5.073946367
 C      -13.700835037     4.773776051    -3.465493793
 C      -14.564786668     5.542111028    -5.689409912
 H       -1.896727385     8.843187792     5.375903201
 C       -2.411564930     7.140372630     4.145653913
 C       -2.319190919     9.514124227     3.354694452
 H       -4.655653303     6.695193493     6.163029123
 C       -3.589836148     7.695882890     7.771745154
 C       -6.051554408     7.864140370     7.343690713
 H       -4.595723720    12.397474215    -2.347526979
 C       -4.542094594    14.516350170    -1.865198418
 C       -2.535800994    13.077553333    -2.286953783
 H       -6.158774842    13.558950719     0.676910560
 C       -6.891964165    11.837003074    -0.406355841
 C       -6.114369040    11.816771325     1.972822266
 H       -1.794326681    -0.870020652    -1.444091889
 C       -0.300163617    -0.164662749    -2.849496176
 C       -0.229400016    -2.361040779    -1.643769066
 H       -0.040404284    -1.924548710     1.527706539
 C       -0.203282170    -0.210345439     2.853869130
 C       -2.096023463    -1.231824258     1.578659970
 H      -13.774686341    10.596793279    -4.571677126
 H      -12.714508208    10.811195634    -5.956470346
 H      -12.025140903    10.363073123    -4.401526106
 H      -11.838619820     7.270105321    -6.662900061
 H      -10.857383524     8.363931256    -5.665339238
 H      -11.636733333     8.952158662    -7.126659949
 H      -12.937495372     4.849106356    -2.677721270
 H      -13.642593961     3.746225482    -3.851776385
 H      -14.683151099     4.867714174    -2.983880921
 H      -14.439439755     6.177896424    -6.575396930
 H      -15.587557088     5.685722928    -5.316540471
 H      -14.511725925     4.503442739    -6.046994595
 H       -2.551497911     6.430336130     4.969871179
 H       -1.378013645     7.005242743     3.794033292
 H       -3.052036511     6.814947008     3.314830024
 H       -2.406783425    10.588992512     3.569263868
 H       -2.960087461     9.314787996     2.481449856
 H       -1.287981852     9.349325079     3.013751242
 H       -2.582406701     7.493769608     7.385218902
 H       -3.799604968     6.907331112     8.507962382
 H       -3.547372896     8.639562532     8.333915068
 H       -6.885928692     7.806470850     6.631068074
 H       -6.147966749     8.804971608     7.901656488
 H       -6.216908285     7.056305891     8.070628586
 H       -5.594929295    14.592269249    -1.563499043
 H       -4.500322402    14.835611449    -2.916010803
 H       -3.977133828    15.265490890    -1.292435224
 H       -2.078193331    12.078574918    -2.275283465
 H       -1.859428825    13.764737587    -1.761359176
 H       -2.542887332    13.396338686    -3.338913881
 H       -6.837951498    12.276888398    -1.409573455
 H       -7.923276915    11.992504677    -0.056363049
 H       -6.776657422    10.749818356    -0.513059352
 H       -5.482697292    12.239423370     2.767446448
 H       -5.935382465    10.729960586     1.972771755
 H       -7.154483126    11.949272016     2.300626578
 H       -0.635125130     0.882273030    -2.873964263
 H       -0.781630206    -0.660160757    -3.704606141
 H        0.778356912    -0.172203508    -3.054918820
 H       -0.522726156    -2.963656672    -0.774450431
 H        0.854229457    -2.475220695    -1.779453934
 H       -0.699642132    -2.834131265    -2.518126418
 H        0.875560085    -0.036092247     2.956468343
 H       -0.501119524    -0.813845400     3.723208131
 H       -0.707919053     0.760259821     2.965469776
 H       -2.449275091    -1.788831225     0.701825472
 H       -2.706125939    -0.322635082     1.670777982
 H       -2.340034887    -1.852007999     2.453721421

