187   

Si        0.000000000     0.000000000     0.000000000
 C        1.865382676     0.000000000     0.000000000
 C       -0.677628485     1.711445754     0.000000000
 C        0.127562320     2.805925577     0.330913431
 C       -0.396209395     4.098645348     0.327725093
 C       -1.735463351     4.326223751     0.000740104
 C       -2.542111852     3.227854261    -0.326097251
 C       -2.021993751     1.936628844    -0.325570949
 C       -2.326890041     5.659952598    -0.015909303
 C       -1.667084203     6.794183892     0.274294901
 C       -2.260764727     8.126965943     0.256957457
 C       -1.457947647     9.227784515     0.581134709
 C       -1.982178307    10.518629176     0.577631997
 C       -3.320562649    10.741169892     0.236908512
 C       -4.124242853     9.641206349    -0.089109764
 C       -3.600673559     8.350117374    -0.074329374
Si       -4.064234452    12.425178974     0.216049440
 C       -5.238567205    12.588498300    -1.184049539
 C       -5.114400683    11.923930795    -2.340694533
 C       -6.038961121    12.038469292    -3.471309016
 C       -5.782983488    11.279312634    -4.624505421
 C       -6.621608823    11.345935396    -5.725152782
 C       -7.724587212    12.221615247    -5.724132515
 C       -7.978869396    12.988443479    -4.578583910
 C       -7.151478383    12.881775001    -3.463900976
 N       -8.548162008    12.239724619    -6.892007025
 C       -7.798718555    12.734260078    -8.078545213
 C       -9.854179756    12.895031269    -6.702345131
 C       -8.601872698    12.639496376    -9.386911890
 C       -9.375186687    13.916647946    -9.779599436
 N       -8.566615722    15.055318253   -10.271158496
 C       -7.690488551    15.594347535    -9.291784704
 C       -8.277989929    16.117513339    -8.120610765
 C       -7.480047798    16.657349085    -7.127573848
 C       -6.087683366    16.741828358    -7.288135313
 C       -5.514279549    16.250032569    -8.461084208
 C       -6.301639763    15.684168420    -9.459263011
 C       -7.983680978    14.811795907   -11.600755229
 C       -5.301642240    17.323165237    -6.200497839
 C       -3.969700681    17.468642593    -6.211314191
Si       -3.059475522    18.208484138    -4.804657628
 C       -3.981907414    17.843724737    -3.252908907
 C       -4.695652152    16.640276939    -3.177178780
 C       -5.409921593    16.313815903    -2.029359495
 C       -5.442413107    17.184766533    -0.935366167
 C       -4.723612588    18.383301663    -1.009944945
 C       -3.989186107    18.704512083    -2.151129047
 C       -6.185224367    16.863561896     0.279843653
 C       -6.900111442    15.736340900     0.434397306
 C       -7.657822367    15.366920372     1.622156268
 C       -7.723406877    16.170683740     2.761832171
 C       -8.464805012    15.768038623     3.872932088
 C       -9.158358427    14.554217187     3.862348255
 C       -9.097974771    13.748740539     2.716994753
 C       -8.359064070    14.153179543     1.610166628
Si      -10.143792650    13.998261955     5.313115393
 C      -10.315068573    15.343073951     6.593269543
 C      -11.855723990    13.444956040     4.695399967
 C       -9.258280304    12.507655098     6.103241913
 C       -1.343064487    17.397931576    -4.694349079
 C       -2.856143057    20.078440036    -5.053849118
 C       -5.051125828    12.678942831     1.822324100
 C       -2.709160195    13.754778235     0.061256290
 C       -0.652898739    -0.902841130    -1.543973076
 C       -0.618814623    -0.922701669     1.545428918
 H        1.182252055     2.690662992     0.595581527
 H        0.252428101     4.933909040     0.585457027
 H       -3.588134054     3.383058113    -0.583676669
 H       -2.699345252     1.119549337    -0.589174119
 H       -3.385674883     5.687101855    -0.290016855
 H       -0.608552203     6.767945881     0.548781673
 H       -0.412396208     9.076449783     0.841891911
 H       -1.307174900    11.336198492     0.844990025
 H       -5.178812219     9.754625582    -0.363509693
 H       -4.247103279     7.512204650    -0.328219312
 H       -6.071100055    13.285083565    -1.011042754
 H       -4.289061885    11.223062042    -2.532722305
 H       -4.919993390    10.613377945    -4.651375508
 H       -6.434052621    10.718989653    -6.594491340
 H       -8.812250015    13.684513665    -4.550839928
 H       -7.377755553    13.479691865    -2.581110628
 H      -10.513067392    12.617422269    -7.542858956
 H       -9.802947469    13.993296085    -6.635852988
 H      -10.334458427    12.503360842    -5.788385948
 H       -8.808028503    14.659243265   -12.319815675
 H       -7.310506469    13.942310091   -11.651104148
 H       -7.431115660    15.708130383   -11.933320129
 H       -9.359046479    16.099217999    -8.006358232
 H       -7.942535564    17.037450529    -6.215379505
 H       -4.434461456    16.303297635    -8.604019947
 H       -5.824939111    15.297997635   -10.354732958
 H       -5.926058537    17.639585328    -5.349853507
 H       -3.359535321    17.162186803    -7.071407277
 H       -4.709106974    15.912751552    -3.998823692
 H       -5.945046209    15.364920593    -1.996683470
 H       -4.730533315    19.072149636    -0.168148077
 H       -3.436841528    19.647212508    -2.150172633
 H       -6.122588639    17.607249505     1.076636861
 H       -6.960843976    15.007084520    -0.381744456
 H       -7.191822004    17.119655062     2.792548552
 H       -8.480492932    16.436307350     4.738106812
 H       -9.624678344    12.792227094     2.651566687
 H       -8.324933627    13.516116453     0.726968774
 H       -7.424738337    13.765992045    -7.907117186
 H       -6.890059373    12.094054655    -8.180027262
 H       -7.909403854    12.366794044   -10.206679914
 H       -9.313305834    11.791019113    -9.315218550
 H      -10.109921045    13.666151672   -10.579045942
 H       -9.977858326    14.280859642    -8.918147204
 H        2.263061352    -1.026067167    -0.096462680
 H        2.275658211     0.429596599     0.930587000
 H        2.260720797     0.589883994    -0.846936749
 H      -10.973973789    15.023537893     7.420480007
 H      -10.755756831    16.256146070     6.153620975
 H       -9.339470379    15.616764099     7.032033739
 H      -11.664803093    12.612479969     3.956959679
 C      -12.759598781    12.888503251     5.809706430
 C      -12.605097629    14.567023187     3.954158378
 H       -9.825575382    12.284190104     7.052093041
 C       -9.270012301    11.240316922     5.230102635
 C       -7.799363422    12.827821048     6.479414040
 H       -0.789466820    17.707898243    -5.626813658
 C       -0.532976846    17.872385719    -3.474979277
 C       -1.422277600    15.860904838    -4.673924006
 H       -2.258725033    20.448198292    -4.170639591
 C       -2.082688434    20.440072257    -6.334661911
 C       -4.206259738    20.818206005    -5.061404780
 H       -5.508736750    13.710196957     1.740589219
 C       -6.193449639    11.657868980     1.975619456
 C       -4.188210955    12.639991963     3.094609166
 H       -1.820333975    13.356674960     0.631750523
 C       -2.275451541    13.978067994    -1.399564000
 C       -3.081875554    15.113555007     0.675732675
 H       -1.777865903    -0.902004028    -1.450591642
 C       -0.288325719    -0.174048866    -2.850048215
 C       -0.190068185    -2.367448634    -1.641099988
 H       -0.124533073    -1.936424679     1.514755203
 C       -0.201830039    -0.227086562     2.854312990
 C       -2.143156399    -1.135357288     1.564875748
 H      -12.316584268    12.039174265     6.345939973
 H      -13.702899311    12.521614150     5.379446455
 H      -13.037104369    13.646175091     6.554509251
 H      -12.042817016    14.974373567     3.101823275
 H      -12.873297350    15.408616980     4.606483595
 H      -13.549047634    14.181930407     3.542687748
 H      -10.277922520    10.913121197     4.945792794
 H       -8.821227866    10.401341383     5.782449686
 H       -8.678333172    11.350906854     4.310413029
 H       -7.701278037    13.676571647     7.168254087
 H       -7.168459525    13.036478381     5.603027568
 H       -7.344121258    11.965496694     6.987755247
 H       -0.345566315    18.953572614    -3.469895589
 H        0.455174450    17.389981346    -3.469025626
 H       -1.006857463    17.610752242    -2.517846531
 H       -1.952231212    15.437620422    -5.538281131
 H       -1.906762044    15.470039974    -3.766523639
 H       -0.411117328    15.430736710    -4.691991160
 H       -1.071977290    20.014106287    -6.369396941
 H       -1.957220078    21.530496912    -6.402140176
 H       -2.607258348    20.135345018    -7.251077326
 H       -4.802214561    20.650938280    -4.153525318
 H       -4.835255799    20.549207645    -5.922479551
 H       -4.042393875    21.903016050    -5.126332358
 H       -6.863304070    11.610686930     1.107264773
 H       -6.823725887    11.933712466     2.835210402
 H       -5.829417129    10.639808932     2.171356902
 H       -3.364869771    13.365470441     3.090231991
 H       -3.755835011    11.648214255     3.286564184
 H       -4.807111844    12.883582253     3.970893896
 H       -2.023898943    13.053479824    -1.935067169
 H       -1.377027335    14.609838952    -1.433459903
 H       -3.045735434    14.503822837    -1.986135569
 H       -3.186973433    15.081401168     1.767177276
 H       -4.011131904    15.533901046     0.265769289
 H       -2.298943188    15.854714897     0.461047670
 H       -0.638462054     0.867855946    -2.877623074
 H       -0.757323258    -0.678166645    -3.706949314
 H        0.791365377    -0.165133350    -3.049812532
 H       -0.469288507    -2.971150621    -0.767953914
 H        0.894451228    -2.465151966    -1.782340455
 H       -0.657542816    -2.851408978    -2.510973145
 H        0.884079552    -0.106475043     2.958322733
 H       -0.528504170    -0.823541854     3.718225547
 H       -0.660052731     0.765202696     2.974992730
 H       -2.517243391    -1.693952561     0.697674957
 H       -2.704229051    -0.192073549     1.626406854
 H       -2.429144879    -1.719705762     2.451587500

