187   

Si        0.000000000     0.000000000     0.000000000
 C        1.865197298     0.000000000     0.000000000
 C       -0.675021113     1.712790905     0.000000000
 C        0.105759408     2.790139980    -0.431422134
 C       -0.410146558     4.085866428    -0.429542197
 C       -1.717725641     4.333910943    -0.003558049
 C       -2.500685906     3.252667530     0.422467456
 C       -1.988525407     1.958050550     0.422076358
 C       -2.299067294     5.672167294     0.015461128
 C       -1.657884906     6.790108861    -0.365403246
 C       -2.238647525     8.128599477    -0.346620449
 C       -1.454017943     9.208897686    -0.772769848
 C       -1.964958398    10.503985360    -0.772549641
 C       -3.277791633    10.748501498    -0.349366647
 C       -4.062633418     9.672369888     0.077162796
 C       -3.545674904     8.377163042     0.080745339
Si       -3.954406521    12.459559262    -0.348531247
 C       -5.774905850    12.407472399    -0.204961188
 C       -6.516055538    13.106320187     0.664914060
 C       -7.975513548    13.032439373     0.743811067
 C       -8.644801200    13.812858363     1.697624464
 C      -10.024313904    13.779552169     1.813362584
 C      -10.788836807    12.910289284     1.002531585
 C      -10.116485022    12.122472989     0.046576071
 C       -8.737312600    12.205941447    -0.087029820
 N      -12.181135981    12.886384441     1.129328348
 C      -12.767620925    13.128737737     2.456196176
 C      -12.930757256    11.947778517     0.285944507
 C      -12.204868804    12.268599019     3.603452646
 C      -12.708963711    10.814903095     3.626436833
 N      -14.150197922    10.620847986     3.886087097
 C      -14.974156916    10.662682886     2.732822430
 C      -14.749487215     9.679438789     1.747364927
 C      -15.517464853     9.660986119     0.595617120
 C      -16.554193498    10.588414605     0.405070778
 C      -16.793065961    11.539927707     1.398609877
 C      -16.024060582    11.575778611     2.557647261
 C      -14.643456379    11.353935092     5.061454565
 C      -17.332671702    10.520571512    -0.832816610
 C      -18.344782407    11.344254347    -1.135908928
Si      -19.300876921    11.235655515    -2.692440344
 C      -18.258105042    10.582057365    -4.059766110
 C      -16.901576093    10.925750140    -4.111687199
 C      -16.087957832    10.445242993    -5.135929113
 C      -16.611132217     9.620759930    -6.136359703
 C      -17.970109122     9.284877207    -6.086519296
 C      -18.785850813     9.761048404    -5.062486131
 C      -15.796422616     9.095255421    -7.226894554
 C      -14.485231804     9.341730687    -7.388212735
 C      -13.668237798     8.817627788    -8.477610002
 C      -14.185762014     7.991089074    -9.478078848
 C      -13.367852647     7.512390478   -10.501585160
 C      -12.010234032     7.845244468   -10.541877547
 C      -11.488558696     8.673810620    -9.538923864
 C      -12.308843596     9.155210592    -8.522525864
Si      -10.917489787     7.221614856   -11.885880617
 C      -11.730826909     5.846956389   -12.849309210
 C      -10.504783428     8.645601398   -13.079508585
 C       -9.297440864     6.604040703   -11.099786074
 C      -20.813815156    10.118297833    -2.413917680
 C      -19.902120297    12.979292090    -3.155280405
 C       -3.182420194    13.441408732     1.085743296
 C       -3.498090743    13.309129412    -1.989377965
 C       -0.625310688    -0.911934053    -1.549159590
 C       -0.651651717    -0.915577679     1.536851170
 H        1.135497231     2.659011217    -0.775169759
 H        0.219679094     4.907404259    -0.765969835
 H       -3.522063128     3.423608611     0.757460541
 H       -2.646973792     1.154818336     0.764242814
 H       -3.331967667     5.717261173     0.372976865
 H       -0.625033149     6.744668255    -0.722990983
 H       -0.433255892     9.036405860    -1.107986637
 H       -1.307040889    11.307215418    -1.115576982
 H       -5.093261645     9.806594222     0.421828625
 H       -4.174640081     7.556232865     0.419994512
 H       -6.247853161    11.731206084    -0.936618871
 H       -6.078456897    13.795141563     1.399387014
 H       -8.072589818    14.471643325     2.351748132
 H      -10.516332252    14.429777289     2.530002821
 H      -10.665606853    11.443665218    -0.597455342
 H       -8.243392466    11.597148051    -0.846442685
 H      -14.018064230    12.080520796     0.440672170
 H      -12.688840402    10.889895765     0.480776540
 H      -12.732408708    12.173276747    -0.778208254
 H      -14.000474780    11.114192733     5.926566091
 H      -15.661280194    10.999494308     5.305444954
 H      -14.671640449    12.447850133     4.940048263
 H      -13.976112084     8.929774821     1.904552712
 H      -15.325869935     8.901960832    -0.164500687
 H      -17.595982648    12.267497893     1.274157517
 H      -16.238117832    12.325360676     3.313284867
 H      -16.998521509     9.718629069    -1.507719126
 H      -18.671212551    12.133392960    -0.442777242
 H      -16.436639412    11.571664811    -3.358605010
 H      -15.035264047    10.722174948    -5.151347551
 H      -18.397470672     8.645142776    -6.856237569
 H      -19.838632983     9.466676510    -5.076957385
 H      -16.335444002     8.461784300    -7.937192829
 H      -13.946858345     9.976281644    -6.677802006
 H      -15.238154999     7.713564551    -9.467111362
 H      -13.830178762     6.870864908   -11.256823575
 H      -10.434915151     8.966837833    -9.518868755
 H      -11.885998168     9.799459876    -7.753819985
 H      -12.608384327    14.208526151     2.694956438
 H      -13.872122484    12.998155818     2.388829541
 H      -11.095638190    12.248919558     3.544004295
 H      -12.432927591    12.762625536     4.566533841
 H      -12.438978108    10.315006502     2.669253968
 H      -12.168733153    10.256207075     4.428791820
 H        2.263193787    -1.029255406     0.049915751
 H        2.259680677     0.551600048     0.872896654
 H        2.276280063     0.471470218    -0.909619865
 H      -11.053915829     5.452050850   -13.627900190
 H      -12.652152991     6.188824892   -13.352447435
 H      -12.000663348     5.004677181   -12.186592009
 H       -9.879537675     8.184824956   -13.898117648
 C      -11.761325192     9.257228298   -13.725771512
 C       -9.683706941     9.775182413   -12.432218865
 H       -8.843765519     7.499088771   -10.582428232
 C       -9.535721521     5.516637933   -10.036533121
 C       -8.275273435     6.085690723   -12.126883805
 H      -21.380743092    10.111840245    -3.389606249
 C      -20.416946975     8.669057728    -2.080159150
 C      -21.761082318    10.640606752    -1.318989666
 H      -20.535525981    13.331353881    -2.290597730
 C      -18.737443323    13.970617213    -3.329405214
 C      -20.770849770    13.000198258    -4.424812821
 H       -3.714133709    14.436887487     1.099015138
 C       -3.404669813    12.759440582     2.448336338
 C       -1.677289133    13.709911478     0.908658219
 H       -2.370669559    13.337958370    -2.021453925
 C       -3.987452618    12.519723702    -3.216699589
 C       -4.015599367    14.755081443    -2.082750244
 H       -0.152927700    -1.935862405    -1.514697677
 C       -2.153852309    -1.091604150    -1.575291190
 C       -0.186214179    -0.227289296    -2.856435820
 H       -1.776306156    -0.923131462     1.439605428
 C       -0.178787805    -2.377568488     1.626507031
 C       -0.296787060    -0.192628260     2.848830126
 H      -12.366051936     8.528370919   -14.280395688
 H      -11.472862997    10.031638486   -14.451038719
 H      -12.420171265     9.749626150   -12.996044037
 H       -8.724851353     9.436200209   -12.020033976
 H      -10.230117570    10.296056421   -11.633285719
 H       -9.440222228    10.540038225   -13.184171364
 H      -10.218412326     5.834840922    -9.235624726
 H       -8.587416746     5.255356156    -9.545315749
 H       -9.932591664     4.583603587   -10.457841043
 H       -8.000329932     6.832828241   -12.882549494
 H       -8.617300474     5.185861540   -12.655039705
 H       -7.341244251     5.806028605   -11.617774041
 H      -19.783002942     8.201065664    -2.845986581
 H      -21.315098265     8.040801219    -1.998232913
 H      -19.890653457     8.581075387    -1.118477516
 H      -22.155009793    11.643958879    -1.524975016
 H      -21.295097268    10.660033994    -0.323894363
 H      -22.636338223     9.980178027    -1.233981991
 H      -18.097660548    14.054550944    -2.440458568
 H      -19.127619402    14.979675254    -3.524754432
 H      -18.089799775    13.722603859    -4.182905623
 H      -21.676581171    12.385759186    -4.343854881
 H      -20.225430770    12.675536969    -5.322693789
 H      -21.113132699    14.025065943    -4.629729387
 H       -4.462023696    12.567820992     2.676963657
 H       -3.023936097    13.398442773     3.257270074
 H       -2.872511390    11.801145017     2.536262049
 H       -1.439055588    14.274586417    -0.001609755
 H       -1.076644677    12.789583483     0.902084029
 H       -1.302318536    14.312130717     1.749078819
 H       -3.622104375    11.483380364    -3.241790005
 H       -3.624818723    12.994793304    -4.139259938
 H       -5.082772482    12.488199622    -3.296292622
 H       -3.635029627    15.406070550    -1.285210731
 H       -5.113332263    14.818289822    -2.067984464
 H       -3.694428378    15.209670182    -3.030735608
 H       -2.539680070    -1.664335647    -0.722484270
 H       -2.451444802    -1.646955985    -2.476659085
 H       -2.695872891    -0.135887734    -1.612518705
 H        0.902725670    -0.132390661    -2.955013284
 H       -0.621070107     0.775040029    -2.980164232
 H       -0.522348883    -0.816731613    -3.721531044
 H       -0.457202014    -2.979240872     0.751720767
 H       -0.640310969    -2.868297238     2.495801148
 H        0.906816635    -2.468997757     1.763710494
 H       -0.651282085     0.847610409     2.881127266
 H        0.781996163    -0.180155903     3.053650124
 H       -0.767314629    -0.704123227     3.700551373

