187   

Si        0.000000000     0.000000000     0.000000000
 C        1.865209194     0.000000000     0.000000000
 C       -0.681797246     1.709701785     0.000000000
 C        0.120128873     2.808550944    -0.323913824
 C       -0.409396778     4.099046114    -0.320021979
 C       -1.751183136     4.319723213     0.000999397
 C       -2.554688811     3.216909790     0.320934181
 C       -2.028882163     1.928104711     0.319457606
 C       -2.349603438     5.650256380     0.018444922
 C       -1.695696849     6.789514195    -0.265226676
 C       -2.299558954     8.117849093    -0.246163565
 C       -1.503549419     9.226235060    -0.563067791
 C       -2.037707605    10.512506582    -0.557558887
 C       -3.380362459    10.722656569    -0.221117269
 C       -4.176612588     9.616341297     0.096888948
 C       -3.642512624     8.329060148     0.078913175
Si       -4.107166291    12.411344037    -0.207060689
 C       -5.433260210    12.578958585     1.046630629
 C       -5.446736335    11.875855701     2.186940363
 C       -6.481038817    11.972538448     3.219246055
 C       -6.353822798    11.167026122     4.361932891
 C       -7.298949639    11.212652398     5.373580855
 C       -8.399475555    12.083013491     5.268949710
 C       -8.547446732    12.869432828     4.120824050
 C       -7.609757558    12.786130116     3.094751000
 N       -9.326711883    12.067261249     6.356423703
 C       -8.778375400    12.703064967     7.577501145
 C      -10.682492907    12.540623965     6.027557395
 C       -8.664374437    14.238801635     7.507511617
 C       -7.392975448    14.790610071     8.182319999
 N       -6.188195853    14.856397345     7.322635283
 C       -6.418502442    15.409689533     6.038102387
 C       -7.098650868    16.641722682     5.946989620
 C       -7.343777227    17.216506061     4.709782200
 C       -6.930484559    16.588644914     3.526524013
 C       -6.224474616    15.387164670     3.625586985
 C       -5.934403618    14.820931969     4.860124255
 C       -5.389227825    13.619081475     7.356323010
 C       -7.207449939    17.226696191     2.237734399
 C       -6.847162645    16.694272521     1.063356131
Si       -7.133348260    17.388183517    -0.599996356
 C       -5.523481908    17.351134109    -1.489893119
 C       -4.410037299    17.989776849    -0.927186028
 C       -3.182188785    17.974132483    -1.583540329
 C       -3.032278418    17.309558707    -2.808227839
 C       -4.143660849    16.671412647    -3.364682786
 C       -5.377461793    16.694741861    -2.715383030
 C       -1.727121795    17.319647043    -3.459760896
 C       -1.458971095    16.730425331    -4.637341222
 C       -0.155889867    16.737448629    -5.293220161
 C        0.960933036    17.372810367    -4.744470050
 C        2.188498222    17.354464350    -5.406401609
 C        2.326850163    16.692969708    -6.630613297
 C        1.208234831    16.053740829    -7.182291398
 C       -0.016952671    16.078154977    -6.522029500
Si        3.939780156    16.658982488    -7.517570059
 C        5.334387499    17.252141137    -6.430054033
 C        4.264668038    14.873000020    -8.090446120
 C        3.844832582    17.779981955    -9.053013451
 C       -8.442531181    16.302334420    -1.458487835
 C       -7.798893267    19.167115345    -0.540366523
 C       -2.740636250    13.655169588     0.265332461
 C       -4.770335827    12.886620456    -1.919153528
 C       -0.615086988    -0.921497175    -1.547934493
 C       -0.653511936    -0.907400714     1.540883596
 H        1.176686256     2.698528366    -0.583083825
 H        0.236632268     4.937873320    -0.572524548
 H       -3.602735267     3.366825736     0.573571542
 H       -2.704007279     1.107403309     0.577769920
 H       -3.410050835     5.670316880     0.287376357
 H       -0.635898199     6.771523140    -0.535028562
 H       -0.455843465     9.083628741    -0.820535098
 H       -1.369801082    11.337456943    -0.822161383
 H       -5.234239065     9.719499520     0.362566752
 H       -4.284368882     7.485087299     0.324878367
 H       -6.220939422    13.308573815     0.807186933
 H       -4.661045685    11.148342753     2.440824542
 H       -5.502282897    10.492404450     4.455773211
 H       -7.210023815    10.566196299     6.244411324
 H       -9.389851933    13.547845696     4.018705186
 H       -7.757474789    13.386236615     2.195314227
 H      -11.350796875    12.300415077     6.872603259
 H      -11.054909148    11.987252453     5.147445408
 H      -10.757246477    13.619307243     5.822067717
 H       -5.213593486    13.324627518     8.403913848
 H       -4.398355290    13.819834631     6.909001487
 H       -5.851001357    12.770653759     6.823144496
 H       -7.424973031    17.145906842     6.852368834
 H       -7.868443669    18.170128983     4.660766405
 H       -5.860724006    14.885458770     2.724140122
 H       -5.373017242    13.889447378     4.887888207
 H       -7.738784116    18.181124087     2.325501891
 H       -6.315016790    15.725560751     1.023720126
 H       -4.464256967    18.508790817     0.035649190
 H       -2.329563738    18.481262369    -1.136091445
 H       -4.054779582    16.147953214    -4.314743517
 H       -6.211328419    16.185266954    -3.206193487
 H       -0.945745118    17.855987402    -2.913744236
 H       -2.241525281    16.194952400    -5.183163829
 H        0.880830154    17.891441252    -3.790802567
 H        3.025958669    17.870335221    -4.928374991
 H        1.257248678    15.520192061    -8.135844992
 H       -0.874513449    15.576886000    -6.966939463
 H       -9.434884058    12.404423904     8.424748160
 H       -7.784967339    12.246975110     7.783600246
 H       -8.693533973    14.569251725     6.447853467
 H       -9.554019787    14.700081091     7.973131062
 H       -7.587305498    15.831458807     8.536017222
 H       -7.151578482    14.204655149     9.094763765
 H        2.262900637    -1.029413974     0.049083068
 H        2.260853800     0.550711696     0.872799281
 H        2.275123011     0.471728734    -0.910152677
 H        6.303340491    17.191411912    -6.957195319
 H        5.414791788    16.634950373    -5.516807399
 H        5.191601333    18.301255229    -6.116971291
 H        3.408087765    14.608247402    -8.776476827
 C        5.572339135    14.711278769    -8.885564420
 C        4.259436034    13.869373421    -6.923174310
 H        4.878031554    17.762570137    -9.506415521
 C        2.849394051    17.287501828   -10.118481393
 C        3.504003125    19.238770822    -8.697190845
 H       -8.467787768    16.639220459    -2.534521230
 C       -8.101951846    14.801843058    -1.430268774
 C       -9.853464423    16.489823585    -0.869795933
 H       -8.745688384    19.117522766     0.072670845
 C       -6.842724073    20.158990073     0.146114916
 C       -8.159215536    19.716489447    -1.932712590
 H       -1.961252939    13.580824966    -0.546828299
 C       -3.235265021    15.107565038     0.316904351
 C       -2.073820077    13.309035488     1.608678508
 H       -5.167409662    13.940768814    -1.813829949
 C       -3.680681151    12.905896040    -3.005348632
 C       -5.924476455    11.979089371    -2.379069850
 H       -0.124127106    -1.936780646    -1.514042489
 C       -2.139854738    -1.130235328    -1.574041574
 C       -0.189803024    -0.228765220    -2.855582234
 H       -1.778223638    -0.911729475     1.443972084
 C       -0.184229393    -2.370023320     1.637380348
 C       -0.296931461    -0.178692928     2.849242999
 H        5.618915203    15.346055031    -9.779880191
 H        5.670173523    13.674602933    -9.239601717
 H        6.467796188    14.915050708    -8.283525233
 H        3.327243191    13.886688357    -6.340514958
 H        5.090672988    14.021559550    -6.222027624
 H        4.362091392    12.844228227    -7.306817554
 H        3.067835883    16.276895122   -10.485975863
 H        2.884812104    17.947004667   -10.998018156
 H        1.807732265    17.302231925    -9.768151362
 H        4.217542757    19.696534525    -7.999989186
 H        2.499033740    19.349236445    -8.264896513
 H        3.518640587    19.860768128    -9.603738746
 H       -7.124512582    14.563984454    -1.872751402
 H       -8.844317871    14.236327487    -2.011123998
 H       -8.120573722    14.379922855    -0.415180184
 H      -10.225605523    17.519288325    -0.944101614
 H       -9.921679989    16.185124714     0.184399307
 H      -10.575325741    15.866961761    -1.417163461
 H       -6.526825160    19.844632424     1.150019228
 H       -7.337666721    21.132822295     0.269901969
 H       -5.935745882    20.350595416    -0.444703361
 H       -8.912614785    19.116472414    -2.458902218
 H       -7.286778360    19.810257970    -2.595016298
 H       -8.582635836    20.727200020    -1.840325018
 H       -3.671246831    15.452452939    -0.632530804
 H       -2.395221766    15.786618095     0.522215230
 H       -3.972889969    15.286356987     1.111324690
 H       -1.638177183    12.301426099     1.635191792
 H       -2.762799166    13.395633579     2.461540994
 H       -1.247760855    14.006184821     1.808118317
 H       -2.878769117    13.629098790    -2.801027322
 H       -4.116033218    13.200301416    -3.970885819
 H       -3.213924697    11.924437820    -3.166449715
 H       -6.773557553    11.964387935    -1.682349786
 H       -5.610428032    10.937833731    -2.539100952
 H       -6.319589515    12.328763875    -3.343239989
 H       -2.516860941    -1.698818096    -0.714609479
 H       -2.424885209    -1.702956254    -2.468620464
 H       -2.699137323    -0.185317980    -1.625636317
 H        0.897071859    -0.113121895    -2.955028736
 H       -0.643147075     0.765422263    -2.978787456
 H       -0.515464072    -0.824222818    -3.720517480
 H       -0.464989692    -2.975196930     0.765756117
 H       -0.646069450    -2.855306973     2.509540330
 H        0.901271526    -2.463437233     1.773938114
 H       -0.651310186     0.861749498     2.876684352
 H        0.781912705    -0.165814021     3.053262867
 H       -0.767362924    -0.685805339     3.703627278

