187   

Si        0.000000000     0.000000000     0.000000000
 C        1.865069930     0.000000000     0.000000000
 C       -0.680120444     1.710634422     0.000000000
 C        0.088463426     2.788930874    -0.450481471
 C       -0.433233454     4.082443967    -0.447690798
 C       -1.734544963     4.326827089    -0.001086486
 C       -2.505487973     3.244634453     0.444051623
 C       -1.987671852     1.952417977     0.442184127
 C       -2.323200034     5.661709423     0.020438865
 C       -1.697439172     6.782672420    -0.376903259
 C       -2.290636628     8.115742078    -0.353425985
 C       -3.592972724     8.352180053     0.094729647
 C       -4.121780870     9.642592211     0.100614917
 C       -3.363525056    10.723844367    -0.358102396
 C       -2.058237794    10.489211417    -0.811469454
 C       -1.528605143     9.201862712    -0.804152803
Si       -4.028931514    12.437898337    -0.364568305
 C       -3.424561992    13.388217416    -1.805126691
 C       -3.117758923    12.827537573    -2.982749378
 C       -2.632745123    13.568003671    -4.148303895
 C       -2.347159156    12.858919364    -5.324579890
 C       -1.885639737    13.510600947    -6.456316503
 C       -1.726823724    14.910907825    -6.452068195
 C       -2.001436480    15.621960881    -5.274303304
 C       -2.423267958    14.948600900    -4.133150853
 N       -1.251015901    15.528241341    -7.637095222
 C       -2.040160108    15.253442055    -8.855110199
 C       -0.869996580    16.945950531    -7.516005016
 C       -3.456374447    15.859827510    -8.859319607
 C       -4.528659153    14.834995461    -8.439274655
 N       -5.762876474    15.416583501    -7.865858704
 C       -5.555208634    15.854036602    -6.511938898
 C       -5.823750796    14.902729731    -5.515594635
 C       -5.651282857    15.236522085    -4.180923991
 C       -5.195657680    16.511846901    -3.813055620
 C       -4.941761324    17.453957961    -4.812979110
 C       -5.135573362    17.139085931    -6.154502377
 C       -6.386157354    16.434171680    -8.730685641
 C       -5.030180097    16.814173133    -2.388530729
 C       -4.603445667    17.993156601    -1.919803171
Si       -4.376838762    18.430959139    -0.159992315
 C       -5.209684881    20.026102257     0.204588831
 C       -6.305384638    20.433412870    -0.564186766
 C       -6.945757046    21.642486563    -0.296724825
 C       -6.514939002    22.462796838     0.749930652
 C       -5.421614865    22.048532073     1.522290213
 C       -4.775641912    20.844174300     1.254392592
 C       -7.155160977    23.735665385     1.065439798
 C       -8.208157868    24.245959774     0.404518221
 C       -8.849728487    25.518371675     0.718353534
 C       -8.418530272    26.343892048     1.759909503
 C       -9.061820428    27.552892126     2.024789218
 C      -10.157079619    27.959233165     1.256301444
 C      -10.592500408    27.132204012     0.211923966
 C       -9.945039929    25.928899819    -0.053611394
Si      -11.017632564    29.551667911     1.592269148
 C      -10.495246968    30.282882678     3.226937095
 C      -10.613034458    30.795610750     0.209354367
 C      -12.893259363    29.227301858     1.585432768
 C       -5.123214041    17.096551456     0.972168002
 C       -2.507202324    18.528710355     0.171794036
 C       -5.931393453    12.373811088    -0.430420695
 C       -3.494879273    13.354589877     1.212416974
 C       -0.624828277    -0.912298589    -1.549181377
 C       -0.647845809    -0.918691608     1.536912352
 H        1.112989915     2.659960552    -0.810294429
 H        0.186625507     4.904981314    -0.799850642
 H       -3.521902063     3.412927534     0.795002977
 H       -2.637168043     1.148273341     0.799119495
 H       -3.350212099     5.701619742     0.395554203
 H       -0.670623630     6.744724512    -0.752057691
 H       -4.207376587     7.526315403     0.448407817
 H       -5.143211065     9.764108861     0.470996793
 H       -1.419131690    11.298330425    -1.182062237
 H       -0.511644430     9.039760812    -1.156824650
 H       -3.337761843    14.474640902    -1.647414702
 H       -3.203165905    11.746551313    -3.166081551
 H       -2.483823230    11.777293212    -5.349952787
 H       -1.636466046    12.941634634    -7.348371640
 H       -1.901963493    16.702537788    -5.239296013
 H       -2.623278909    15.523217351    -3.225556324
 H       -0.371503166    17.264367011    -8.447541496
 H       -0.131249929    17.053415891    -6.701175339
 H       -1.712293376    17.628480419    -7.321831329
 H       -6.653778024    15.959658183    -9.690246347
 H       -5.762242251    17.314807652    -8.940012252
 H       -7.323529544    16.776299652    -8.257462539
 H       -6.163566732    13.908832415    -5.804731333
 H       -5.856555441    14.489015811    -3.412535317
 H       -4.596543570    18.453558531    -4.548664075
 H       -4.952110264    17.890182709    -6.916656644
 H       -5.300862578    15.974698559    -1.733472497
 H       -4.336644316    18.814793264    -2.606262648
 H       -6.689104109    19.830079454    -1.393703281
 H       -7.791845699    21.942052137    -0.912628751
 H       -5.070652257    22.673206060     2.341524715
 H       -3.927148272    20.573161382     1.888385938
 H       -6.710751938    24.275237217     1.906847799
 H       -8.652148765    23.705425160    -0.436748409
 H       -7.570928784    26.048664224     2.375695504
 H       -8.678103216    28.156462158     2.852019595
 H      -11.444100550    27.397565221    -0.421005188
 H      -10.297021588    25.300709701    -0.869718745
 H       -1.457889475    15.646081242    -9.720322105
 H       -2.085160895    14.151319810    -9.002852525
 H       -3.488491054    16.732384907    -8.178486664
 H       -3.691771811    16.257093615    -9.862281557
 H       -4.834378501    14.218691589    -9.313163874
 H       -4.109041617    14.127565146    -7.684388875
 H        2.262884873    -1.029190536     0.052770259
 H        2.259608237     0.554041251     0.871356324
 H        2.276460584     0.469050870    -0.910751769
 H      -11.050047368    31.213630221     3.442059654
 H       -9.418571992    30.526989036     3.240706979
 H      -10.692955149    29.580019175     4.056571688
 H      -11.116767697    31.759476343     0.510225100
 C       -9.102391360    31.065383148     0.082765117
 C      -11.157246729    30.385123800    -1.170554501
 H      -13.135380024    28.835825718     0.554606106
 C      -13.309134546    28.152860484     2.606389618
 C      -13.736389099    30.493648256     1.818062205
 H       -4.746228860    16.107889262     0.576817962
 C       -4.682609531    17.218790094     2.440890645
 C       -6.661458903    17.082996116     0.914607282
 H       -2.396080997    18.770154443     1.268126720
 C       -1.781591922    17.198709560    -0.101335062
 C       -1.822980419    19.648320798    -0.632315441
 H       -6.246373969    11.755665984     0.459509927
 C       -6.610622202    13.747679852    -0.309673342
 C       -6.442523385    11.677160131    -1.704497076
 H       -3.933597033    14.393501327     1.135467995
 C       -4.031541617    12.708952966     2.501029745
 C       -1.965789752    13.492886538     1.318696431
 H       -0.149519640    -1.934926710    -1.516699764
 C       -2.152926935    -1.096434980    -1.572922605
 C       -0.189828696    -0.224813161    -2.856308629
 H       -1.772504334    -0.929940039     1.441113062
 C       -0.170161946    -2.379233644     1.624958847
 C       -0.293531996    -0.195751975     2.849043772
 H       -8.647700289    31.445460480     1.006644663
 H       -8.919221360    31.829430779    -0.686338570
 H       -8.534281160    30.176076490    -0.226162294
 H      -12.246157748    30.250682157    -1.187681480
 H      -10.696581273    29.463815814    -1.553952641
 H      -10.934079915    31.168210741    -1.909944975
 H      -12.786575537    27.195702375     2.466171535
 H      -14.381892867    27.933794633     2.507642355
 H      -13.152256709    28.465785317     3.647167155
 H      -13.547633473    31.283360871     1.079394833
 H      -13.591475374    30.927579648     2.816299137
 H      -14.806376457    30.251163320     1.741507094
 H       -3.597049335    17.134528958     2.579025444
 H       -5.129501966    16.408916298     3.036127357
 H       -5.009263416    18.156897714     2.910530250
 H       -7.059381116    16.912807782    -0.095468415
 H       -7.112334440    18.012169493     1.292399651
 H       -7.058760702    16.276193529     1.546678878
 H       -2.166363196    16.360518727     0.496288669
 H       -0.716362247    17.292671862     0.153089659
 H       -1.818585130    16.900049727    -1.159059584
 H       -2.265361498    20.640047895    -0.464590263
 H       -1.826998515    19.461769118    -1.715264807
 H       -0.767046945    19.732367243    -0.338315399
 H       -6.340264045    14.287729666     0.607531194
 H       -7.703105602    13.625721568    -0.280782170
 H       -6.400315121    14.406292984    -1.164287553
 H       -6.068348380    10.650665091    -1.820786943
 H       -6.189334845    12.224411181    -2.624447730
 H       -7.538605656    11.601635183    -1.680851771
 H       -5.127278324    12.662836815     2.542008601
 H       -3.716035587    13.295238670     3.376254374
 H       -3.648902087    11.691140096     2.662771078
 H       -1.509955640    13.989167056     0.450512521
 H       -1.458410253    12.526408924     1.450308459
 H       -1.701361989    14.098119247     2.197284989
 H       -2.535495971    -1.671556114    -0.720248339
 H       -2.450516345    -1.651385157    -2.474530801
 H       -2.697921716    -0.142354888    -1.607685844
 H        0.898707658    -0.126993384    -2.956676808
 H       -0.627499065     0.776507866    -2.978079306
 H       -0.525900033    -0.814038590    -3.721592141
 H       -0.448516558    -2.981352471     0.750455237
 H       -0.628297039    -2.871861535     2.494964318
 H        0.916007738    -2.467399893     1.759942310
 H       -0.651202664     0.843316496     2.882889738
 H        0.785521647    -0.180063120     3.052394173
 H       -0.761111591    -0.709539704     3.701017928

