187   

Si        0.000000000     0.000000000     0.000000000
 C        1.865110899     0.000000000     0.000000000
 C       -0.679386539     1.710967142     0.000000000
 C        0.105976383     2.797215663    -0.399139418
 C       -0.417175779     4.090167597    -0.395940873
 C       -1.736301344     4.326176808    -0.000177317
 C       -2.523637712     3.236083786     0.394209271
 C       -2.004289285     1.944515900     0.392413338
 C       -2.326738660     5.660349468     0.019466889
 C       -1.685198029     6.787609082    -0.332237719
 C       -2.278680542     8.120591617    -0.311457473
 C       -1.494789910     9.213728463    -0.704760373
 C       -2.018371307    10.503859048    -0.701061506
 C       -3.343849656    10.729716339    -0.308665581
 C       -4.128483107     9.640936858     0.085101945
 C       -3.598338138     8.351172886     0.086596421
Si       -4.039638630    12.431598158    -0.302165600
 C       -5.866199721    12.354743966    -0.262755914
 C       -6.662541430    13.022162730     0.581804859
 C       -8.124526726    12.928665310     0.575595374
 C       -8.852084046    13.678709988     1.512788154
 C      -10.235559755    13.625398813     1.548421652
 C      -10.937853034    12.835739183     0.615599876
 C      -10.215052656    12.080543893    -0.319156979
 C       -8.824435366    12.115909007    -0.318949050
 N      -12.353127893    12.826812617     0.708925137
 C      -13.003908651    14.133634238     0.486905017
 C      -13.035313169    11.705627635     0.045348441
 C      -13.317641946    14.503610323    -0.973457072
 C      -12.077754524    14.746529781    -1.854054528
 N      -11.394351130    16.033912691    -1.650185610
 C      -12.170732012    17.199418228    -1.677839048
 C      -13.259898965    17.289038817    -2.573720963
 C      -14.039513298    18.432627408    -2.616336537
 C      -13.744834950    19.543727324    -1.812624999
 C      -12.648807827    19.464107390    -0.949066877
 C      -11.865337990    18.319838506    -0.880520424
 C      -10.268980059    15.986720673    -0.708282230
 C      -14.602343267    20.726785256    -1.897665559
 C      -14.416353642    21.841875979    -1.179219741
Si      -15.452631644    23.345024027    -1.244505573
 C      -14.385192808    24.827574067    -1.461342988
 C      -13.101122580    24.698158975    -2.004703930
 C      -12.290378917    25.818427838    -2.170247673
 C      -12.745662748    27.092986392    -1.808261921
 C      -14.030691064    27.218849058    -1.272455940
 C      -14.843638392    26.099363946    -1.101320746
 C      -11.859097452    28.235934144    -2.000888316
 C      -12.170157803    29.506436986    -1.692676174
 C      -11.283387009    30.649180173    -1.885414805
 C       -9.998824636    30.524994967    -2.420791593
 C       -9.184262763    31.644933225    -2.587723040
 C       -9.635814129    32.914846810    -2.215127834
 C      -10.923701799    33.042003906    -1.677011408
 C      -11.736501593    31.923295714    -1.517365917
Si       -8.572978543    34.402563968    -2.429024475
 C       -6.804464851    33.935469001    -2.795148859
 C       -9.237944218    35.454358902    -3.869580466
 C       -8.663356357    35.435682050    -0.832655199
 C      -16.699328731    23.264003272    -2.678242187
 C      -16.414151854    23.488707684     0.391683432
 C       -3.358181941    13.384059177     1.195617165
 C       -3.517152573    13.334839945    -1.893364228
 C       -0.621430344    -0.916067997    -1.548329072
 C       -0.651342504    -0.912781909     1.538743935
 H        1.144747097     2.675105948    -0.718174364
 H        0.215988434     4.918827873    -0.707702635
 H       -3.553972630     3.397728439     0.705577628
 H       -2.666620560     1.134005800     0.709271179
 H       -3.368635466     5.693902899     0.351882971
 H       -0.643581081     6.755136928    -0.664494971
 H       -0.464318657     9.055394591    -1.016842572
 H       -1.360010821    11.317889043    -1.016734936
 H       -5.168714687     9.759974907     0.405207394
 H       -4.227245778     7.520073088     0.400702743
 H       -6.288213441    11.690807747    -1.036346510
 H       -6.275701959    13.696249802     1.357064679
 H       -8.322226001    14.302045241     2.233836790
 H      -10.787962640    14.179068535     2.305384026
 H      -10.730120488    11.457406044    -1.044120033
 H       -8.280624051    11.508625942    -1.044308512
 H      -14.100986806    11.716633449     0.334457447
 H      -12.608732374    10.755175219     0.413582266
 H      -12.971751925    11.716588952    -1.053808171
 H       -9.708132872    15.041706622    -0.834633797
 H      -10.571911201    16.060796322     0.348829417
 H       -9.565291328    16.807162447    -0.940480676
 H      -13.488786104    16.459664383    -3.236003773
 H      -14.887560566    18.472651962    -3.300596116
 H      -12.396786200    20.314585764    -0.313042951
 H      -11.026614969    18.298671134    -0.192455507
 H      -15.422288396    20.614552706    -2.619000828
 H      -13.585853096    21.919655373    -0.457625027
 H      -12.695623549    23.727478283    -2.309238358
 H      -11.292971171    25.699176819    -2.589244911
 H      -14.408137162    28.197779267    -0.983456531
 H      -15.838368488    26.259201801    -0.676593234
 H      -10.883087352    27.990391990    -2.429886246
 H      -13.146137990    29.752324108    -1.264278477
 H       -9.621897795    29.547099728    -2.714790775
 H       -8.189771450    31.484902403    -3.013284076
 H      -11.329588566    34.009221871    -1.367400247
 H      -12.734358242    32.042249445    -1.099516524
 H      -13.957342014    14.111359523     1.068485916
 H      -12.382361519    14.933693440     0.947658392
 H      -13.939754839    13.715988824    -1.438101486
 H      -13.956755693    15.412221038    -0.972255933
 H      -11.341040102    13.922966112    -1.711801348
 H      -12.375265095    14.698684681    -2.929714443
 H        2.262688433    -1.028835975     0.061728080
 H        2.260114828     0.561280607     0.866450735
 H        2.275987983     0.460791871    -0.915204653
 H       -6.164468092    34.832250048    -2.875757626
 H       -6.716584920    33.378089899    -3.744144630
 H       -6.387581911    33.301704774    -1.991431369
 H       -8.512514431    36.311360432    -3.981192685
 C       -9.269979363    34.679256939    -5.199556199
 C      -10.635562527    36.044572162    -3.609757731
 H       -9.749353922    35.717421343    -0.707798011
 C       -8.239139834    34.634864054     0.411791606
 C       -7.843368519    36.736582163    -0.895825315
 H      -17.257226889    22.291668853    -2.549102013
 C      -17.728230799    24.408681219    -2.657781686
 C      -16.010406529    23.244163976    -4.055074136
 H      -17.058266884    24.409980411     0.294737059
 C      -17.338866925    22.286894504     0.653337692
 C      -15.487245646    23.682963788     1.605034863
 H       -3.897140836    14.375570456     1.203374600
 C       -3.648857069    12.667539621     2.527013164
 C       -1.847749796    13.665843710     1.106526912
 H       -2.390532219    13.390975472    -1.863626414
 C       -3.920649828    12.568037726    -3.165224236
 C       -4.064752559    14.770354323    -1.976753150
 H       -0.139834570    -1.935830190    -1.515341672
 C       -2.148295803    -1.109640971    -1.572418144
 C       -0.190638174    -0.226884242    -2.856036114
 H       -1.775938472    -0.921791974     1.440889973
 C       -0.176516579    -2.373794188     1.632554302
 C       -0.298358839    -0.185699456     2.848951485
 H       -8.288363174    34.294343884    -5.504372539
 H       -9.606823020    35.338809782    -6.012164855
 H       -9.969289712    33.830855685    -5.182623573
 H      -10.681253837    36.681363124    -2.717303822
 H      -11.413090941    35.273445499    -3.515265899
 H      -10.937285021    36.680156869    -4.455104092
 H       -8.823022298    33.714292736     0.554932084
 H       -8.390438485    35.238223993     1.318209491
 H       -7.177554360    34.354514015     0.400738470
 H       -8.137941312    37.396604495    -1.721923196
 H       -6.763104128    36.558167732    -0.979009591
 H       -7.988391354    37.316564716     0.027277673
 H      -18.338332449    24.430142445    -1.745967853
 H      -18.432735292    24.295142219    -3.494519836
 H      -17.268479526    25.399719637    -2.779233750
 H      -15.284848045    22.427530669    -4.172249540
 H      -15.485344520    24.183545342    -4.281495875
 H      -16.757704328    23.110239740    -4.849548174
 H      -18.089817439    22.136300255    -0.132771232
 H      -17.897800671    22.438126229     1.587748964
 H      -16.789004887    21.342361661     0.773162082
 H      -14.820205264    24.551368485     1.508933086
 H      -14.860739425    22.804010097     1.809765806
 H      -16.084531320    23.853949091     2.511812893
 H       -4.715342322    12.464894010     2.694906919
 H       -3.315535041    13.288406555     3.370560346
 H       -3.115550409    11.710171323     2.620393662
 H       -1.565202502    14.257352699     0.226420792
 H       -1.240697311    12.749483523     1.106561289
 H       -1.522098569    14.246417984     1.982178610
 H       -3.530827841    11.540696479    -3.196818575
 H       -3.518733969    13.075193126    -4.054110160
 H       -5.008722426    12.515323604    -3.306953320
 H       -3.742639578    15.408388581    -1.143742874
 H       -5.162764362    14.808596503    -2.020694582
 H       -3.703874768    15.257787245    -2.893976360
 H       -2.528311340    -1.682494000    -0.717085394
 H       -2.441402621    -1.671335896    -2.471346113
 H       -2.698792668    -0.159026227    -1.613224770
 H        0.897251760    -0.121891389    -2.956306189
 H       -0.634713746     0.771481322    -2.978759208
 H       -0.522627220    -0.819076877    -3.720867494
 H       -0.452130060    -2.977913838     0.758564689
 H       -0.639060300    -2.863305182     2.502017223
 H        0.908956954    -2.463250630     1.772252380
 H       -0.655867608     0.853568341     2.878668846
 H        0.780369024    -0.169735279     3.053788109
 H       -0.767547046    -0.696423467     3.701896094

