187   

Si        0.000000000     0.000000000     0.000000000
 C        1.865228593     0.000000000     0.000000000
 C       -0.672998208     1.713426575     0.000000000
 C        0.070938568     2.770394527     0.535338662
 C       -0.438864926     4.068423911     0.535354996
 C       -1.704612549     4.339006638     0.008561641
 C       -2.451417935     3.278016096    -0.520398002
 C       -1.945130994     1.981028168    -0.522133901
 C       -2.279139634     5.679942911    -0.013171595
 C       -1.672154364     6.781918298     0.459260129
 C       -2.250173334     8.121539893     0.435705776
 C       -1.508128838     9.186196390     0.962840606
 C       -2.020275517    10.481753732     0.961351185
 C       -3.282305400    10.744994848     0.416602158
 C       -4.024450226     9.682592878    -0.113420447
 C       -3.514866249     8.385769721    -0.098545951
Si       -3.988919521    12.443124068     0.398040194
 C       -4.979351829    12.755086849    -1.108211741
 C       -4.722890846    12.165280170    -2.283291737
 C       -5.484149864    12.381638124    -3.513027823
 C       -5.095480595    11.691290705    -4.668139533
 C       -5.774788530    11.851837082    -5.865481867
 C       -6.817487878    12.796068956    -5.974211662
 C       -7.192758838    13.509575450    -4.816002419
 C       -6.548967845    13.282706491    -3.607758670
 N       -7.515632393    12.971407928    -7.179131162
 C       -6.931656830    12.428342768    -8.417248322
 C       -8.207826880    14.258365818    -7.356585260
 C       -5.531433702    12.953513349    -8.784888990
 C       -5.558800677    14.262090204    -9.597284999
 N       -4.571978956    15.277181412    -9.160820123
 C       -4.928405453    15.848311958    -7.894359026
 C       -5.878703309    16.881833682    -7.935510942
 C       -6.283494323    17.492968589    -6.759140861
 C       -5.759388918    17.088150777    -5.522283497
 C       -4.807245997    16.066143504    -5.492046564
 C       -4.381725520    15.455629357    -6.668009709
 C       -3.180062366    14.799148872    -9.241238773
 C       -6.226784125    17.772703895    -4.314661341
 C       -5.809910615    17.486518931    -3.075136868
Si       -6.388576313    18.336399833    -1.563170414
 C       -6.890873284    17.069614900    -0.331140342
 C       -7.543370006    15.912444255    -0.777974214
 C       -7.937361555    14.933069962     0.128606538
 C       -7.721051192    15.103539579     1.502798230
 C       -7.080714420    16.263921297     1.945505934
 C       -6.663396823    17.236596950     1.037463446
 C       -8.151558636    14.048971397     2.414002988
 C       -7.985469302    14.073337502     3.747296904
 C       -8.418514478    13.015018402     4.653012567
 C       -9.058524905    11.856454950     4.205126103
 C       -9.456540483    10.868394612     5.105193829
 C       -9.205512356    11.010751142     6.473430133
 C       -8.557523250    12.168904867     6.924358219
 C       -8.171588100    13.158507159     6.024659762
Si       -9.724008887     9.716353041     7.675134211
 C      -10.254006370     8.151515592     6.809445071
 C       -8.251429650     9.362750901     8.828488390
 C      -11.178544146    10.358941250     8.720646667
 C       -4.978368712    19.424710031    -0.899246484
 C       -7.890944688    19.445627437    -1.922931717
 C       -5.139337745    12.577088748     1.906994533
 C       -2.645876193    13.779552988     0.519753145
 C       -0.646350626    -0.923986776    -1.534302491
 C       -0.630033255    -0.906238209     1.550738142
 H        1.066884507     2.621087782     0.961438493
 H        0.161896616     4.874169257     0.953230820
 H       -3.440175798     3.466411376    -0.934466546
 H       -2.574937211     1.194398061    -0.946453864
 H       -3.277863145     5.741837390    -0.455434231
 H       -0.673923300     6.721377506     0.902262966
 H       -0.521509574     9.002069591     1.382945516
 H       -1.399265763    11.271229152     1.392689913
 H       -5.017245121     9.831336769    -0.552242197
 H       -4.112617790     7.576013516    -0.512502685
 H       -5.797037260    13.482428753    -0.989898579
 H       -3.902669322    11.443568329    -2.413390743
 H       -4.260970749    10.989907323    -4.623456991
 H       -5.485896103    11.244309041    -6.716633136
 H       -7.994639906    14.240218484    -4.855511557
 H       -6.870972044    13.834688134    -2.722620568
 H       -8.632452858    14.335780547    -8.369480359
 H       -7.547959723    15.129164995    -7.188671092
 H       -9.054570367    14.314066185    -6.648186243
 H       -2.948223292    14.582351141   -10.298293236
 H       -2.962127047    13.899034784    -8.647005469
 H       -2.502302322    15.607326995    -8.914296543
 H       -6.276750025    17.202596765    -8.896632167
 H       -7.014892068    18.299461584    -6.799880113
 H       -4.391639852    15.730239663    -4.539853777
 H       -3.638751342    14.663345765    -6.621193500
 H       -6.964744989    18.557481994    -4.527625473
 H       -5.064365980    16.695053469    -2.887873578
 H       -7.751349436    15.738609919    -1.839646184
 H       -8.424464517    14.029090065    -0.234135804
 H       -6.898729609    16.416462336     3.007364004
 H       -6.160262190    18.119536808     1.439844943
 H       -8.640427684    13.197971460     1.928997771
 H       -7.497960738    14.922522001     4.234152962
 H       -9.262841025    11.718982203     3.144425967
 H       -9.958682739     9.987129969     4.696115509
 H       -8.333503714    12.333107696     7.982247531
 H       -7.671391643    14.051724848     6.393744278
 H       -6.893266104    11.317530981    -8.298810366
 H       -7.645184932    12.609087739    -9.251695612
 H       -4.943849919    13.107210785    -7.854991903
 H       -4.984753211    12.175596515    -9.347768234
 H       -5.362049485    14.054972266   -10.672215034
 H       -6.565806968    14.732958596    -9.552657171
 H        2.263433000    -1.029138129    -0.048115195
 H        2.277073200     0.474108448     0.907841180
 H        2.258542108     0.550426614    -0.874238517
 H      -10.519412413     7.364142008     7.537443897
 H       -9.440592165     7.754771112     6.174665208
 H      -11.134578404     8.318203410     6.164695459
 H       -8.026918077    10.337881246     9.350930408
 C       -8.556225009     8.309009530     9.907861114
 C       -6.988568456     8.940368010     8.056248015
 H      -11.480736869     9.496564101     9.382819196
 C      -10.813564764    11.548578648     9.626541451
 C      -12.394759519    10.749469974     7.860854909
 H       -5.381073586    19.924283497     0.029034867
 C       -3.732073477    18.614898163    -0.501502460
 C       -4.561186586    20.527593367    -1.888694116
 H       -7.572963674    20.144230925    -2.750038022
 C       -9.112910921    18.646949983    -2.412645510
 C       -8.312093865    20.300554095    -0.714442628
 H       -5.709733737    13.543437572     1.774043979
 C       -6.152710879    11.419717410     1.960640956
 C       -4.397122842    12.647483643     3.252076051
 H       -2.077390630    13.573371714     1.471486391
 C       -1.652342569    13.726613844    -0.654996732
 C       -3.235380816    15.198500267     0.610939867
 H       -1.771708319    -0.924751539    -1.445457324
 C       -0.277170933    -0.214722455    -2.849869068
 C       -0.181417308    -2.389517138    -1.608797357
 H       -0.165310971    -1.933565500     1.517946457
 C       -0.186279581    -0.222814873     2.857100237
 C       -2.160037605    -1.073766236     1.575559769
 H       -9.408743906     8.573998302    10.546373221
 H       -7.692046681     8.199140107    10.579253899
 H       -8.748111968     7.311640820     9.490362643
 H       -6.676598922     9.673661711     7.298444751
 H       -7.097385542     7.970677192     7.552298576
 H       -6.140981506     8.835083935     8.748423748
 H       -9.999541657    11.328659878    10.328786183
 H      -11.680431174    11.831012321    10.241776373
 H      -10.536971549    12.447802220     9.058481333
 H      -12.773383819     9.926811952     7.240709543
 H      -12.191756520    11.601058169     7.195661994
 H      -13.229972505    11.056201072     8.506774658
 H       -3.937548412    17.843318348     0.253801492
 H       -2.974675226    19.279942854    -0.062691453
 H       -3.249098249    18.123412592    -1.357924597
 H       -5.379970230    21.208151390    -2.155057148
 H       -4.142243973    20.128141482    -2.823653229
 H       -3.775128052    21.154734879    -1.443991121
 H       -8.910826919    18.032701406    -3.300775567
 H       -9.925251003    19.333365291    -2.689784646
 H       -9.524232581    17.983036190    -1.638415528
 H       -7.525192066    20.982039841    -0.366587603
 H       -8.637489558    19.697536277     0.145069592
 H       -9.169224618    20.935153792    -0.983208733
 H       -6.784648832    11.351499911     1.065960706
 H       -6.832055292    11.559061907     2.816182318
 H       -5.676883595    10.440229790     2.111234244
 H       -3.720401607    13.506865672     3.331599120
 H       -3.819225036    11.739401699     3.470892416
 H       -5.125162622    12.751894971     4.071485658
 H       -1.146584670    12.756739000    -0.754235240
 H       -0.859744514    14.474121602    -0.513162110
 H       -2.123928218    13.953458311    -1.622526783
 H       -3.923694790    15.333153925     1.456340843
 H       -3.774222910    15.492696990    -0.302256300
 H       -2.429253507    15.932291708     0.748618232
 H       -0.620948325     0.828676716    -2.892688859
 H       -0.747080074    -0.728439860    -3.700480056
 H        0.802989728    -0.214238695    -3.047889567
 H       -0.475358580    -2.983872832    -0.734068358
 H        0.905239029    -2.488783299    -1.731049938
 H       -0.634515344    -2.882645507    -2.481094544
 H        0.903378506    -0.138078766     2.956672092
 H       -0.529061449    -0.807374167     3.722910090
 H       -0.612260187     0.783704352     2.978146624
 H       -2.549461318    -1.644420824     0.723017634
 H       -2.694439168    -0.113541129     1.609822648
 H       -2.463354017    -1.625191005     2.477334746

