187   

Si        0.000000000     0.000000000     0.000000000
 C        1.865272968     0.000000000     0.000000000
 C       -0.678278465     1.711447541     0.000000000
 C        0.144310946     2.815481685     0.244947962
 C       -0.382397265     4.106855624     0.242049201
 C       -1.741884437     4.323598415     0.002812105
 C       -2.565522147     3.216163748    -0.239085306
 C       -2.042062401     1.926261966    -0.241397757
 C       -2.335154604     5.656539268    -0.009497975
 C       -1.652968775     6.794425882     0.203258175
 C       -2.236429199     8.131178462     0.193074141
 C       -3.594134248     8.359057581    -0.045000054
 C       -4.109505288     9.655339341    -0.045404356
 C       -3.268934707    10.751092558     0.166232168
 C       -1.904352616    10.527380902     0.397415572
 C       -1.397368817     9.231795699     0.415261173
Si       -3.893251962    12.482121510     0.176305835
 C       -2.618928191    13.509396629    -0.634367077
 C       -2.104415443    14.644200265    -0.144430987
 C       -1.083216155    15.442702014    -0.822135198
 C       -0.626750188    16.613001840    -0.201872742
 C        0.338637566    17.409981186    -0.794734117
 C        0.945757483    17.015193995    -2.006936707
 C        0.496851790    15.829735219    -2.622979647
 C       -0.515917021    15.076119179    -2.046461134
 N        1.923674987    17.827422547    -2.602897661
 C        2.715128875    18.705243437    -1.720581860
 C        2.697882370    17.233891299    -3.704737739
 C        3.393544987    18.007964204    -0.527068866
 C        4.760590262    17.389659130    -0.876499577
 N        4.991015714    16.048761288    -0.293485594
 C        4.213264604    15.034197432    -0.934048427
 C        4.624655835    14.662613234    -2.226705671
 C        3.927383265    13.686929879    -2.919726660
 C        2.826860860    13.038125602    -2.338552757
 C        2.435596693    13.399299915    -1.047547140
 C        3.122186666    14.385788067    -0.344298618
 C        4.929836157    16.045228302     1.178270404
 C        2.136289753    12.016953218    -3.128039689
 C        1.074507988    11.312918575    -2.714063739
Si        0.268577222    10.050117568    -3.768964815
 C        0.442431777    10.484791555    -5.550096957
 C        0.405139083    11.830868143    -5.935459090
 C        0.534178373    12.188196164    -7.275963417
 C        0.689698994    11.210762616    -8.263218062
 C        0.716991307     9.864695360    -7.876879537
 C        0.591930497     9.504474262    -6.536886544
 C        0.828356950    11.538063506    -9.678359293
 C        0.818862240    12.784853054   -10.179738555
 C        0.957507973    13.112293848   -11.594834580
 C        1.116668770    12.136739419   -12.582268108
 C        1.245717808    12.494341797   -13.924316348
 C        1.225902154    13.839005386   -14.307300882
 C        1.067418342    14.819776273   -13.318614052
 C        0.932440257    14.459369194   -11.980874626
Si        1.394965553    14.327680894   -16.073977386
 C        1.954999580    12.896418008   -17.131182746
 C       -0.282999400    14.947403939   -16.724920300
 C        2.650635968    15.754547444   -16.179854238
 C        1.069515666     8.360226783    -3.430278891
 C       -1.579600512     9.980998426    -3.337130552
 C       -5.552663914    12.646656780    -0.734081021
 C       -4.159807418    13.013405900     1.984252306
 C       -0.658051443    -0.897170642    -1.544418016
 C       -0.609166730    -0.927302978     1.546495333
 H        1.214997351     2.708511507     0.440293671
 H        0.280656748     4.949079325     0.432245052
 H       -3.627258879     3.362702573    -0.428102504
 H       -2.732769357     1.101553020    -0.438967782
 H       -3.409381658     5.679164310    -0.213246983
 H       -0.579170870     6.765541739     0.414885054
 H       -4.264902361     7.521643235    -0.226076952
 H       -5.181488062     9.772046854    -0.223934518
 H       -1.201595935    11.351598272     0.564008403
 H       -0.335869607     9.074945649     0.601163766
 H       -2.290933666    13.108865123    -1.609139042
 H       -2.416233129    15.071581697     0.817546162
 H       -1.051907908    16.919404144     0.754271832
 H        0.624372127    18.339937098    -0.313399235
 H        0.938720761    15.486379943    -3.554078171
 H       -0.851862358    14.168753322    -2.553656376
 H        3.465287413    17.939829552    -4.059458329
 H        2.019889872    17.041939576    -4.557192708
 H        3.194874852    16.286635068    -3.428168153
 H        5.702026111    16.733990615     1.562436392
 H        5.179516509    15.034102761     1.546049189
 H        3.958443341    16.342644501     1.601548355
 H        5.499405083    15.137647653    -2.666639984
 H        4.249824297    13.410178157    -3.924083941
 H        1.576069536    12.915531412    -0.580637564
 H        2.789073655    14.658687775     0.652919674
 H        2.580410050    11.882489223    -4.126308491
 H        0.643627380    11.448520747    -1.711470988
 H        0.279558463    12.639914465    -5.206955105
 H        0.508025663    13.241236664    -7.549982403
 H        0.835575325     9.088290251    -8.630145411
 H        0.617632854     8.438074064    -6.296475166
 H        0.945371927    10.673631240   -10.338584442
 H        0.700566593    13.649048296    -9.519642007
 H        1.139641967    11.083027278   -12.310183889
 H        1.365541610    11.686119422   -14.651062496
 H        1.044863108    15.886501948   -13.558814625
 H        0.807557962    15.235165331   -11.227879407
 H        3.470032580    19.243513173    -2.335011330
 H        2.022186393    19.497057254    -1.344327505
 H        3.508682528    18.729103147     0.301971228
 H        2.720922920    17.217260652    -0.131001150
 H        4.884412863    17.309124057    -1.979071104
 H        5.584731660    18.047816377    -0.521737466
 H        2.263128957    -1.029668113    -0.044701136
 H        2.274797223     0.475201095     0.908650584
 H        2.261836167     0.546466145    -0.874982809
 H        2.096697755    13.208629900   -18.181302251
 H        1.220676529    12.071939572   -17.125981641
 H        2.919030728    12.492094228   -16.772633674
 H       -0.121631252    15.168471382   -17.819585043
 C       -1.389027863    13.882348916   -16.610771050
 C       -0.771201162    16.239128271   -16.045167387
 H        2.221921342    16.590660013   -15.554147040
 C        4.020668623    15.378372356   -15.587061485
 C        2.852016935    16.290597807   -17.608374574
 H        0.528864407     7.624407906    -4.094147858
 C        2.563324425     8.332788086    -3.800418383
 C        0.906883951     7.889920386    -1.975432369
 H       -1.642054161     9.988538433    -2.207349120
 C       -2.334625140    11.210774570    -3.871235264
 C       -2.283910621     8.708198295    -3.836365593
 H       -6.275701773    11.983387223    -0.175712883
 C       -6.105549656    14.083342380    -0.705089089
 C       -5.501712443    12.166409615    -2.194633347
 H       -4.428460941    14.108773033     1.949239935
 C       -5.313938505    12.261657160     2.671009329
 C       -2.890998125    12.858536056     2.842801053
 H       -1.782932993    -0.891497507    -1.448797771
 C       -0.293477691    -0.167143421    -2.849813891
 C       -0.201055468    -2.363253641    -1.644815858
 H       -0.102425481    -1.935161516     1.515172392
 C       -0.197632404    -0.226401080     2.854253713
 C       -2.130308638    -1.160390977     1.570338045
 H       -1.156306435    12.952210498   -17.144944230
 H       -2.323959204    14.261495535   -17.047765545
 H       -1.621851958    13.618248460   -15.569034267
 H       -0.070180744    17.077266756   -16.145940761
 H       -0.984565255    16.103347773   -14.975491357
 H       -1.713637163    16.571495844   -16.504503349
 H        3.962736818    15.036922641   -14.543561259
 H        4.685044823    16.254214121   -15.586869348
 H        4.537582407    14.598478590   -16.161755991
 H        1.924354482    16.649489329   -18.072655841
 H        3.299910029    15.550431266   -18.284575643
 H        3.539959205    17.148531069   -17.593732317
 H        2.759894630     8.596028145    -4.848593965
 H        2.968955083     7.321535151    -3.656152975
 H        3.170938920     9.001367175    -3.173707332
 H       -0.144878925     7.834747160    -1.657997729
 H        1.444684508     8.524780705    -1.258682305
 H        1.314818797     6.875364567    -1.860542233
 H       -1.937715024    12.164195450    -3.497509599
 H       -3.387380098    11.166501248    -3.556828632
 H       -2.347752045    11.262923849    -4.969362059
 H       -1.856493439     7.784169163    -3.424556622
 H       -2.289614576     8.618552570    -4.930532260
 H       -3.337882844     8.717682972    -3.521242243
 H       -6.263917458    14.470303620     0.309666810
 H       -7.085351774    14.120217134    -1.202371393
 H       -5.463494731    14.799363453    -1.238406124
 H       -5.167464074    11.124788553    -2.298928954
 H       -4.856643555    12.794331862    -2.825979177
 H       -6.505111684    12.211801424    -2.641821448
 H       -6.284883816    12.413496256     2.182461513
 H       -5.432768627    12.618120912     3.704594405
 H       -5.139428737    11.178650730     2.740399588
 H       -2.020564133    13.396301828     2.442746914
 H       -2.596564509    11.807889664     2.979033766
 H       -3.066356592    13.260871333     3.850365271
 H       -0.640712706     0.875693574    -2.875185043
 H       -0.765690432    -0.668358707    -3.706755755
 H        0.785831859    -0.161328315    -3.051746170
 H       -0.491983975    -2.969837916    -0.777446103
 H        0.884346318    -2.465752885    -1.775834151
 H       -0.662115000    -2.840678383    -2.521754429
 H        0.887209211    -0.094356470     2.956513092
 H       -0.516704632    -0.825492598     3.719220169
 H       -0.665651135     0.761208447     2.975026288
 H       -2.498840419    -1.725289785     0.704800750
 H       -2.704245200    -0.225225436     1.633315179
 H       -2.405787792    -1.747709741     2.458552389

