187   

Si        0.000000000     0.000000000     0.000000000
 C        1.865316024     0.000000000     0.000000000
 C       -0.671378797     1.714352648     0.000000000
 C        0.116380470     2.790301949    -0.422227104
 C       -0.395194452     4.087628131    -0.421000360
 C       -1.705219325     4.338998403    -0.004454061
 C       -2.494859346     3.259413335     0.412948839
 C       -1.986857955     1.963088590     0.413385400
 C       -2.281089476     5.679737955     0.013032871
 C       -1.630687299     6.794651577    -0.360671251
 C       -2.201810764     8.137234391    -0.345064381
 C       -3.511430469     8.395209325     0.070453467
 C       -4.015832191     9.694979875     0.068884987
 C       -3.215311514    10.766624867    -0.341264172
 C       -1.903101064    10.512070471    -0.758342991
 C       -1.405749541     9.211369160    -0.763598236
Si       -3.871329820    12.485156632    -0.346999022
 C       -2.483858356    13.674538536    -0.339670755
 C       -2.336236221    14.714373136    -1.170878779
 C       -1.205970514    15.643754907    -1.128910996
 C       -1.158047594    16.697665815    -2.051325892
 C       -0.109768621    17.604339261    -2.053129336
 C        0.913470703    17.517717163    -1.084883454
 C        0.863951134    16.459071897    -0.156283191
 C       -0.167247094    15.530912260    -0.200088242
 N        1.978435490    18.435192076    -1.083091339
 C        1.742994433    19.756362669    -1.689391242
 C        2.791264651    18.508777699     0.143557299
 C        0.706552518    20.596812391    -0.926190590
 C        0.426458689    21.910633397    -1.673565289
 N       -0.460985386    22.822821480    -0.932057617
 C        0.016465265    23.348102997     0.282321714
 C        1.402540642    23.479426750     0.512800734
 C        1.870332052    23.997276985     1.710167631
 C        0.987321966    24.453931250     2.698215792
 C       -0.385596564    24.353696781     2.455899655
 C       -0.871057596    23.817416795     1.270845188
 C       -1.869668605    22.392110752    -0.960563900
 C        1.536313646    24.991236754     3.943897803
 C        0.792147017    25.455683293     4.956863291
Si        1.483877011    26.125899484     6.511046847
 C        3.093118089    25.341113800     6.934067871
 C        3.298014269    23.986331591     6.639365779
 C        4.507560659    23.371466794     6.950374844
 C        5.537225615    24.089013653     7.574007124
 C        5.326900426    25.437527240     7.874119452
 C        4.117777557    26.057559449     7.560017492
 C        6.786593974    23.400050833     7.879681303
 C        7.850777750    23.970153381     8.470058813
 C        9.099913372    23.280469914     8.775433882
 C        9.309700226    21.932097854     8.475145535
 C       10.520156808    21.312189174     8.784875971
 C       11.546976441    22.028063364     9.408450334
 C       11.339117893    23.380628298     9.710858827
 C       10.131956346    23.997896299     9.395352679
Si       13.149773898    21.222682093     9.823063923
 C       13.023947112    19.363491402     9.741023374
 C       14.481936689    21.804588520     8.594228183
 C       13.662999392    21.769652467    11.572753473
 C        1.693967691    28.007970416     6.327853310
 C        0.247410353    25.784343676     7.915581608
 C       -4.977862094    12.723212889    -1.875135147
 C       -4.919562821    12.768153511     1.215891785
 C       -0.625058750    -0.912250415    -1.548902245
 C       -0.652298867    -0.913759976     1.537482963
 H        1.148262804     2.656809023    -0.758756324
 H        0.239973078     4.907818485    -0.750809143
 H       -3.518106800     3.432915762     0.740604393
 H       -2.650231021     1.161127439     0.748821492
 H       -3.316321938     5.729164018     0.362385334
 H       -0.595113936     6.743280646    -0.710242261
 H       -4.150668070     7.578067881     0.398978053
 H       -5.047816119     9.835346882     0.401779050
 H       -1.234848177    11.312738288    -1.092397478
 H       -0.384841168     9.030875194    -1.095039165
 H       -1.741230380    13.469254500     0.449678343
 H       -3.060305194    14.951040579    -1.961313513
 H       -1.952075923    16.803279585    -2.791295844
 H       -0.091051543    18.386482343    -2.805906046
 H        1.636709632    16.346796662     0.597637711
 H       -0.169318826    14.709988383     0.519457387
 H        3.552509011    19.301288364     0.049686941
 H        3.336632008    17.556410718     0.274135613
 H        2.195832763    18.707647162     1.050115316
 H       -2.111004096    21.942346900    -1.938057355
 H       -2.521243269    23.277572390    -0.847520446
 H       -2.118859004    21.661448392    -0.173255808
 H        2.118141137    23.166482996    -0.241408628
 H        2.946579832    24.063686206     1.876631615
 H       -1.096020207    24.702430920     3.207118089
 H       -1.944712387    23.760714770     1.123504302
 H        2.635206776    24.970485309     3.975920193
 H       -0.306284563    25.475384948     4.896967349
 H        2.527831222    23.375538670     6.156068352
 H        4.651045189    22.320225160     6.708250403
 H        6.109757055    26.017549815     8.359112764
 H        4.012268320    27.114265675     7.820223173
 H        6.810182513    22.345667076     7.589160635
 H        7.827205297    25.024333757     8.761365426
 H        8.524919890    21.351283310     7.994152965
 H       10.625133635    20.255146252     8.525375188
 H       12.105484941    23.990047178    10.198211372
 H        9.989760721    25.049592263     9.636725770
 H        2.717848047    20.293692095    -1.739586707
 H        1.430737111    19.609268342    -2.748577899
 H       -0.230970143    20.022878377    -0.793831343
 H        1.065545999    20.808509148     0.099908055
 H        1.376111844    22.447962885    -1.899037671
 H       -0.038564274    21.702418355    -2.664213795
 H        2.263537083    -1.029066294     0.052274565
 H        2.259806974     0.553578127     0.871626652
 H        2.276233891     0.469253519    -0.910866273
 H       13.975563432    18.886459577    10.036400878
 H       12.779043279    19.013787656     8.722923036
 H       12.239557799    18.989625456    10.424063324
 H       15.420110457    21.242690521     8.872176041
 C       14.131780815    21.457105389     7.135711501
 C       14.784746836    23.311087166     8.683171513
 H       13.773794505    22.892135505    11.526020852
 C       12.591123871    21.446138308    12.629232797
 C       15.010477857    21.182459927    12.028992195
 H        2.084169143    28.377745024     7.319796149
 C        2.718884522    28.377672640     5.240511872
 C        0.372011576    28.740199783     6.035786992
 H       -0.713213360    26.294519128     7.615882932
 C       -0.042602838    24.282213032     8.085757823
 C        0.695040020    26.363690267     9.268819030
 H       -5.266401011    13.814132557    -1.881868543
 C       -4.238162464    12.413153306    -3.189430328
 C       -6.271185588    11.889996868    -1.828836651
 H       -5.774536380    12.034442223     1.153746029
 C       -4.138548868    12.478150528     2.510020152
 C       -5.512905603    14.185747007     1.293912648
 H       -0.152409451    -1.936092389    -1.514238993
 C       -2.153558680    -1.092707421    -1.575107536
 C       -0.186115177    -0.227779369    -2.856319601
 H       -1.776993566    -0.919609314     1.440460539
 C       -0.181270067    -2.376261508     1.628035549
 C       -0.296100605    -0.190344887     2.848859488
 H       13.982469432    20.382951220     6.966819402
 H       14.951077710    21.761547634     6.468641975
 H       13.233083718    21.978805529     6.776326138
 H       15.134029585    23.627666905     9.674117329
 H       13.922114557    23.936520735     8.413084917
 H       15.585966360    23.575208870     7.977509159
 H       11.607901302    21.880107532    12.397247024
 H       12.886183016    21.858677905    13.604613116
 H       12.448817465    20.367808809    12.780169701
 H       15.842734006    21.430390620    11.357626089
 H       14.985601935    20.090472248    12.141864468
 H       15.281003114    21.586706502    13.015421976
 H        3.711721085    27.937294655     5.406698000
 H        2.865359007    29.466515778     5.213528935
 H        2.394049125    28.085128684     4.231214044
 H       -0.390337610    28.590458684     6.810738739
 H       -0.069677080    28.455403765     5.070489094
 H        0.547174516    29.824567767     5.984215926
 H       -0.420936823    23.804295272     7.171854026
 H       -0.813932304    24.131843980     8.854345853
 H        0.837033203    23.712597242     8.418700024
 H        0.836646552    27.451837301     9.252151525
 H        1.625097112    25.910993694     9.641664341
 H       -0.069314934    26.165681824    10.034189828
 H       -3.317315802    12.996843884    -3.324737763
 H       -4.881459534    12.646581688    -4.049267261
 H       -3.969393995    11.351072003    -3.285610822
 H       -6.911876222    12.126939525    -0.970021295
 H       -6.082978238    10.807053557    -1.820617484
 H       -6.876789050    12.086695633    -2.725497520
 H       -3.718560591    11.462981134     2.546924684
 H       -4.804999395    12.565750265     3.379828216
 H       -3.314899017    13.184933955     2.680693137
 H       -6.155629945    14.436472654     0.440349402
 H       -4.743664760    14.967518074     1.372056030
 H       -6.141350406    14.282176147     2.190749086
 H       -2.539369557    -1.664299277    -0.721535454
 H       -2.450679124    -1.649598579    -2.475689684
 H       -2.695975792    -0.137305544    -1.614006769
 H        0.902819451    -0.132602299    -2.954917952
 H       -0.621113417     0.774461891    -2.980318277
 H       -0.522039983    -0.817430946    -3.721358329
 H       -0.461614744    -2.978447505     0.754210082
 H       -0.642224521    -2.865571751     2.498423505
 H        0.904412437    -2.468980295     1.763895756
 H       -0.648859389     0.850502372     2.880379136
 H        0.782742257    -0.179505343     3.053535036
 H       -0.767349023    -0.700309226     3.701090530

