187   

Si        0.000000000     0.000000000     0.000000000
 C        1.865719428     0.000000000     0.000000000
 C       -0.679598343     1.710604207     0.000000000
 C        0.155354347     2.822370228     0.148223351
 C       -0.374318172     4.112789666     0.146248707
 C       -1.748703552     4.320982236     0.005713344
 C       -2.584436142     3.205521452    -0.141086719
 C       -2.058168569     1.916905388    -0.146980059
 C       -2.347120825     5.651779754    -0.001998527
 C       -1.660377654     6.800226616     0.122232956
 C       -2.258704415     8.131092960     0.114533899
 C       -1.421468631     9.246368704     0.253706370
 C       -1.946763210    10.535681202     0.252160249
 C       -3.327119956    10.738110624     0.127816766
 C       -4.165550391     9.626999399    -0.008048242
 C       -3.634382666     8.337693593    -0.019431110
Si       -4.024599815    12.436991985     0.125271019
 C       -5.782230746    12.406708631     0.631439667
 C       -6.800593356    12.989509493    -0.013074881
 C       -8.194392835    12.933260015     0.438669477
 C       -9.178254719    13.584817202    -0.322254612
 C      -10.509226525    13.559610751     0.064595858
 C      -10.882020944    12.886870465     1.239417911
 C       -9.911211293    12.230891646     2.002255360
 C       -8.580697631    12.248172729     1.593200571
 N      -12.282453478    12.914708721     1.559368334
 C      -12.629720873    14.096556045     2.381561420
 C      -12.792111357    11.647879598     2.113699009
 C      -12.215735972    14.004288013     3.863462946
 C      -12.203158490    15.385852220     4.546912255
 N      -10.867054374    15.999853333     4.714561574
 C      -10.247073634    16.314626547     3.463464914
 C      -10.702990289    17.470110442     2.806934072
 C      -10.149549444    17.839520142     1.589605817
 C       -9.149811177    17.061061933     0.989365969
 C       -8.690502278    15.925605766     1.661790274
 C       -9.207367153    15.566209206     2.900862258
 C      -10.007710169    15.253284383     5.651425403
 C       -8.589021937    17.483552328    -0.297399170
 C       -7.633036721    16.804903576    -0.944066913
Si       -6.871617937    17.246441534    -2.545106160
 C       -5.047223847    17.175263302    -2.328542559
 C       -4.485423121    17.449736445    -1.077342061
 C       -3.103811159    17.399689341    -0.897927941
 C       -2.257451972    17.067504548    -1.959149858
 C       -2.823156070    16.796272685    -3.212124700
 C       -4.201783148    16.856129687    -3.397955192
 C       -0.807307384    17.003835244    -1.814102759
 C       -0.144878108    17.241651710    -0.669321232
 C        1.304928353    17.178931498    -0.520532739
 C        2.157737003    16.858275233    -1.579673985
 C        3.539098014    16.809625310    -1.393018197
 C        4.098044546    17.086986132    -0.141536909
 C        3.244316736    17.408678219     0.922465958
 C        1.865785791    17.450719493     0.734654139
Si        5.919375129    17.026907462     0.120668001
 C        6.843897980    16.973382636    -1.498396622
 C        6.430988469    18.564312825     1.119687862
 C        6.359859993    15.474024189     1.129613282
 C       -7.454819112    16.019904412    -3.875376810
 C       -7.364953048    18.998432416    -3.091314424
 C       -3.104468399    13.521955716     1.392249834
 C       -3.796496025    13.210349496    -1.594687586
 C       -0.663835809    -0.893494808    -1.543711881
 C       -0.595948491    -0.933618787     1.548583444
 H        1.237875089     2.722938257     0.265948357
 H        0.297893218     4.961559648     0.258251465
 H       -3.657867234     3.345531869    -0.253804077
 H       -2.758494983     1.086067720    -0.271420193
 H       -3.434623852     5.663518295    -0.120222854
 H       -0.572842749     6.788287067     0.240122079
 H       -0.347535298     9.106215127     0.360111362
 H       -1.245058039    11.368910695     0.354690222
 H       -5.250795104     9.727893926    -0.110925820
 H       -4.305768002     7.488447436    -0.131379744
 H       -5.947974464    11.849889378     1.569700234
 H       -6.666430371    13.552855075    -0.946332757
 H       -8.899717618    14.118878674    -1.232246136
 H      -11.273734283    14.060644209    -0.528127835
 H      -10.190134847    11.697423887     2.905928166
 H       -7.836735670    11.722348430     2.192119806
 H      -13.892164344    11.711160675     2.174505340
 H      -12.402806781    11.382917926     3.107220191
 H      -12.545838263    10.829703004     1.414156583
 H      -10.484604204    15.267806796     6.646755386
 H       -9.037507031    15.772226316     5.744786120
 H       -9.817799739    14.205562723     5.373277944
 H      -11.482822601    18.073339381     3.267581782
 H      -10.503039498    18.742913124     1.094488319
 H       -7.892734773    15.316265154     1.228442223
 H       -8.825341109    14.680238806     3.401588466
 H       -9.031100195    18.409711108    -0.682982286
 H       -7.219240298    15.871034846    -0.519251377
 H       -5.100809830    17.709455661    -0.208553750
 H       -2.686818672    17.626299407     0.082080329
 H       -2.180511744    16.540192636    -4.051995301
 H       -4.587257918    16.641561371    -4.398150569
 H       -0.265668709    16.742865403    -2.727673092
 H       -0.687223372    17.504162704     0.244079661
 H        1.748424182    16.642111297    -2.564877834
 H        4.155308404    16.552149399    -2.258979065
 H        3.624935995    17.635109635     1.922583105
 H        1.218966675    17.700974030     1.573599507
 H      -12.155258227    14.989196065     1.909407881
 H      -13.729367024    14.240247063     2.297649968
 H      -12.900665384    13.326321244     4.402103532
 H      -11.213726206    13.538733469     3.937035031
 H      -12.835813007    16.107671198     3.983041083
 H      -12.656736942    15.310870116     5.560993144
 H        2.263266291    -1.030304063    -0.026478371
 H        2.273637908     0.490996241     0.900967438
 H        2.263373193     0.530934702    -0.883813885
 H        7.936247250    16.984045947    -1.333484217
 H        6.594963321    17.848382757    -2.126016333
 H        6.604265083    16.064160036    -2.077053826
 H        5.871985951    18.497668109     2.098190625
 C        7.935551726    18.615873594     1.439246807
 C        6.018738622    19.877800541     0.430860444
 H        7.485848331    15.466863652     1.202415947
 C        5.790149380    15.484924589     2.559370177
 C        5.917909620    14.173901035     0.433137308
 H       -7.016180303    16.393407962    -4.846200110
 C       -6.949394165    14.585074555    -3.651708862
 C       -8.986443369    15.989836083    -4.026585567
 H       -8.493185920    19.016340627    -3.100463108
 C       -6.876429479    20.079499245    -2.109759459
 C       -6.871208441    19.356013852    -4.504376845
 H       -2.061587997    13.660278154     0.983792688
 C       -3.744690361    14.910985964     1.554401583
 C       -2.989692578    12.858276087     2.775754983
 H       -4.367983495    14.185688101    -1.581169954
 C       -2.329645226    13.533917391    -1.927670961
 C       -4.373867112    12.323577826    -2.712603078
 H       -1.788667507    -0.878691024    -1.447928061
 C       -0.294114618    -0.167299477    -2.849818141
 C       -0.217465021    -2.362961619    -1.643071543
 H       -0.069057333    -1.931237698     1.520230815
 C       -0.198109249    -0.220617115     2.854197802
 C       -2.111677200    -1.198867696     1.575498515
 H        8.292718140    17.738873567     1.994435434
 H        8.155205072    19.489233841     2.070653003
 H        8.560423729    18.721432499     0.542458839
 H        4.940985811    19.938630043     0.222197354
 H        6.548765567    20.051712314    -0.514999373
 H        6.254358063    20.733838844     1.079259390
 H        6.124130419    16.343475209     3.155694124
 H        6.122241293    14.587770013     3.102182747
 H        4.691444813    15.465154903     2.581035852
 H        6.347715674    14.047166802    -0.568849265
 H        4.825664597    14.089551713     0.339631068
 H        6.244279187    13.302744489     1.019269103
 H       -5.859603144    14.519970270    -3.518805605
 H       -7.189223303    13.960597999    -4.524153602
 H       -7.420682294    14.095480831    -2.787833926
 H       -9.416772538    16.962209365    -4.297857382
 H       -9.502236133    15.640782313    -3.120172759
 H       -9.272031238    15.295778063    -4.829957167
 H       -7.218590572    19.923764709    -1.077466742
 H       -7.255240022    21.065196566    -2.414759480
 H       -5.780562613    20.166636673    -2.083389369
 H       -7.268729057    18.696035295    -5.285713867
 H       -5.775268211    19.355419910    -4.588950365
 H       -7.196264857    20.372759167    -4.769929693
 H       -3.830700315    15.461823180     0.606244968
 H       -3.130039525    15.533623785     2.218959026
 H       -4.746355004    14.870578536     2.005680714
 H       -2.509447564    11.870290893     2.748330483
 H       -3.960050399    12.740148203     3.276315415
 H       -2.373042012    13.479857568     3.440463504
 H       -1.880288196    14.267808427    -1.243390699
 H       -2.265597545    13.987355892    -2.928280081
 H       -1.682656668    12.647415803    -1.948540589
 H       -5.444109523    12.107888217    -2.591796074
 H       -3.852380104    11.359905220    -2.805154202
 H       -4.262416932    12.822451387    -3.685855295
 H       -0.633599992     0.878185455    -2.875602054
 H       -0.770860631    -0.665310495    -3.706069604
 H        0.785006604    -0.169930106    -3.052318920
 H       -0.511006513    -2.966444863    -0.774453705
 H        0.866961711    -2.473052843    -1.775715583
 H       -0.683374208    -2.838118157    -2.518627084
 H        0.883796553    -0.065570822     2.955260517
 H       -0.504273708    -0.823438658     3.721099007
 H       -0.685996724     0.757770517     2.971944544
 H       -2.473011079    -1.758356450     0.703514468
 H       -2.704149722    -0.276789039     1.655434566
 H       -2.370310654    -1.804672347     2.456301957

