187   

Si        0.000000000     0.000000000     0.000000000
 C        1.865435319     0.000000000     0.000000000
 C       -0.680271510     1.709435167     0.000000000
 C        0.154003213     2.819063492    -0.166166226
 C       -0.375366888     4.109065016    -0.164080749
 C       -1.745493227     4.318180441     0.012266938
 C       -2.579833860     3.205305537     0.181357085
 C       -2.055527826     1.916060386     0.174035123
 C       -2.341306422     5.649359686     0.021208949
 C       -1.651590229     6.791752465    -0.135713481
 C       -2.243653404     8.123975929    -0.127342431
 C       -3.613539348     8.334229133     0.048910162
 C       -4.139466872     9.625122320     0.050475144
 C       -3.311088762    10.732911630    -0.154955110
 C       -1.937866567    10.524044950    -0.338663934
 C       -1.412077057     9.235234848    -0.316306457
Si       -4.001159182    12.437825921    -0.153620952
 C       -3.046752941    13.518727273    -1.282029887
 C       -3.577859349    14.307734401    -2.224998973
 C       -2.798305872    15.166748536    -3.119721545
 C       -3.482388632    15.945751766    -4.066251141
 C       -2.796405628    16.776095056    -4.937673975
 C       -1.389907012    16.827123397    -4.901800209
 C       -0.701076459    16.047751372    -3.961641473
 C       -1.404143523    15.235708333    -3.077432017
 N       -0.743187033    17.699016885    -5.821652319
 C       -0.978151926    17.362483252    -7.243314720
 C        0.665532333    17.998667066    -5.516961308
 C       -0.829124914    15.867214159    -7.582845249
 C       -0.047943656    15.604478494    -8.882847888
 N        1.413755658    15.421188214    -8.723105370
 C        1.735206369    14.473669976    -7.704970659
 C        1.424199283    13.127433446    -7.971039291
 C        1.707357627    12.151505240    -7.029300617
 C        2.281417877    12.487672407    -5.793128739
 C        2.600597965    13.823598749    -5.542061552
 C        2.356702942    14.807606915    -6.495088416
 C        2.159169202    16.689130223    -8.665072308
 C        2.559697147    11.415537348    -4.834752875
 C        3.104184110    11.611966227    -3.626666929
Si        3.448149198    10.268059423    -2.436635284
 C        2.257458579     8.880495187    -2.623288104
 C        0.909332775     9.147705840    -2.886793662
 C       -0.002141026     8.102556763    -3.030159807
 C        0.412768553     6.772366446    -2.920291189
 C        1.762914291     6.507940496    -2.656494599
 C        2.674705517     7.549182616    -2.506475980
 C       -0.501952968     5.646288460    -3.062261194
 C       -1.817015532     5.754661348    -3.315002526
 C       -2.721513454     4.618858247    -3.454757551
 C       -2.288662540     3.295540523    -3.335311345
 C       -3.184823363     2.237191548    -3.475664317
 C       -4.540232902     2.482111094    -3.716072775
 C       -4.979994004     3.808041303    -3.820307200
 C       -4.081173376     4.862962015    -3.686504800
Si       -5.723212447     1.079761713    -3.901265734
 C       -4.838387337    -0.482368918    -4.400980081
 C       -6.561371931     0.882640399    -2.200928570
 C       -7.020835380     1.560316418    -5.209628891
 C        5.236712770     9.669703232    -2.667798001
 C        3.254219077    10.976373307    -0.679203137
 C       -5.841385234    12.487971829    -0.636317591
 C       -3.819244057    13.108213709     1.620588925
 C       -0.597478295    -0.923165979    -1.554864430
 C       -0.675493898    -0.897898800     1.535231460
 H        1.233877060     2.718421313    -0.301360793
 H        0.292905428     4.958946662    -0.299794125
 H       -3.650668563     3.349073424     0.313523715
 H       -2.755271650     1.086272473     0.308702048
 H       -3.425207044     5.665201541     0.164450790
 H       -0.567498272     6.772963992    -0.291583572
 H       -4.282363791     7.487840726     0.192415296
 H       -5.217188354     9.725738602     0.207423431
 H       -1.242139719    11.351245148    -0.507690606
 H       -0.340710471     9.087901420    -0.457376800
 H       -1.956803097    13.482944904    -1.121525408
 H       -4.658594222    14.368957173    -2.409903874
 H       -4.570450678    15.905772401    -4.113488251
 H       -3.338269929    17.392883063    -5.650615815
 H        0.384365789    16.054115997    -3.923577189
 H       -0.848886532    14.635033182    -2.355766853
 H        1.000114435    18.829772714    -6.161049650
 H        1.349114632    17.145021986    -5.650709267
 H        0.743112140    18.353020996    -4.472916589
 H        2.006051416    17.226946322    -9.617292771
 H        3.239526297    16.473572213    -8.587883472
 H        1.871589089    17.355115766    -7.838645819
 H        0.973669122    12.860364438    -8.925016619
 H        1.472114373    11.109721204    -7.250192167
 H        3.056732559    14.107078508    -4.593319409
 H        2.641204348    15.834054694    -6.284869435
 H        2.263308872    10.421305232    -5.198917468
 H        3.396755482    12.616470769    -3.285770115
 H        0.528334274    10.169630353    -2.993816718
 H       -1.048720000     8.334130650    -3.227685800
 H        2.106058647     5.478996736    -2.569648646
 H        3.713674626     7.281890820    -2.297776053
 H       -0.038822830     4.660972698    -2.947024194
 H       -2.287717204     6.736190432    -3.424022838
 H       -1.241498356     3.079771927    -3.124994480
 H       -2.784427017     1.222571087    -3.382840117
 H       -6.027977286     4.058898063    -4.001934949
 H       -4.440416043     5.887367871    -3.764590459
 H       -2.011195265    17.703529208    -7.487243551
 H       -0.301475698    17.982137504    -7.869451733
 H       -0.348222344    15.329809917    -6.738382340
 H       -1.831646475    15.404009387    -7.655372092
 H       -0.430806572    14.669000529    -9.357347197
 H       -0.224427772    16.413939549    -9.622131155
 H        2.262822780    -1.030066923     0.028102496
 H        2.262977407     0.531072675     0.883674281
 H        2.274555775     0.489987475    -0.900697966
 H       -5.556477144    -1.303031409    -4.576994899
 H       -4.133514125    -0.818535724    -3.619853748
 H       -4.265189008    -0.333953420    -5.333941016
 H       -7.215465648     1.793697070    -2.077402081
 C       -7.454394499    -0.364100439    -2.078541141
 C       -5.545354235     0.870400565    -1.042197796
 H       -7.610542091     2.413942204    -4.766410916
 C       -6.372313158     2.059313714    -6.515391194
 C       -8.012776746     0.436179408    -5.557441129
 H        5.399299258     8.861271266    -1.897640479
 C        5.474832242     9.061287489    -4.061661590
 C        6.282819913    10.772336160    -2.423080956
 H        4.054866611    11.763092122    -0.572137563
 C        1.887699036    11.651715366    -0.462385324
 C        3.468340902     9.920708585     0.419128723
 H       -6.070646322    13.582586141    -0.802698896
 C       -6.123835355    11.739901569    -1.952073184
 C       -6.809954734    11.980686633     0.446679639
 H       -4.446939648    12.428223971     2.266617381
 C       -2.370186829    13.046912937     2.135544705
 C       -4.346389787    14.544844103     1.777430845
 H       -0.075598652    -1.923158506    -1.528513392
 C       -2.114231971    -1.180931019    -1.580974885
 C       -0.192765696    -0.208380235    -2.857219168
 H       -1.799642249    -0.887746877     1.430296756
 C       -0.224279658    -2.365740389     1.636400852
 C       -0.320012758    -0.171888041     2.845314448
 H       -8.275069748    -0.385903101    -2.806814525
 H       -7.927232741    -0.391843280    -1.086174983
 H       -6.894772723    -1.303343442    -2.180097714
 H       -4.876791876     1.744608097    -1.040828557
 H       -4.917380269    -0.030629871    -1.036968238
 H       -6.074603943     0.885872039    -0.079070587
 H       -5.682533657     2.902646263    -6.366823403
 H       -7.146869627     2.414937924    -7.209462964
 H       -5.819463318     1.272508110    -7.045941096
 H       -8.590742299     0.082555127    -4.694070046
 H       -7.528013080    -0.436443292    -6.014666222
 H       -8.748555602     0.798480596    -6.290153029
 H        4.797238988     8.229940640    -4.299962046
 H        6.494340919     8.656018963    -4.127845172
 H        5.383863401     9.800887926    -4.870718431
 H        6.235250699    11.203237291    -1.415008612
 H        6.211529089    11.597270070    -3.145624171
 H        7.295960396    10.358032779    -2.530523194
 H        1.674945317    12.448897154    -1.187830674
 H        1.853933038    12.119676863     0.531833017
 H        1.052252323    10.936776911    -0.494380649
 H        4.461212734     9.454644688     0.388828403
 H        2.720695610     9.114414182     0.390424286
 H        3.379311785    10.386112120     1.411488438
 H       -5.515038348    12.094273599    -2.796095095
 H       -7.172878543    11.878389269    -2.248639089
 H       -5.966046979    10.655254201    -1.872266717
 H       -6.724345898    12.526806952     1.395315017
 H       -6.695084763    10.911799265     0.669001418
 H       -7.848891644    12.111886204     0.110482034
 H       -1.939781235    12.035704602     2.100995896
 H       -2.333772143    13.356679585     3.189837563
 H       -1.693493593    13.720478349     1.592990499
 H       -5.403261199    14.655238379     1.502582271
 H       -3.773124047    15.276901244     1.190653340
 H       -4.267342298    14.862087470     2.827160896
 H       -2.471876416    -1.764091725    -0.723102166
 H       -2.380294255    -1.761600747    -2.476315265
 H       -2.702586971    -0.252352581    -1.625035548
 H        0.892577446    -0.087584654    -2.966939051
 H       -0.648461622     0.787419608    -2.959462738
 H       -0.524643230    -0.792393289    -3.727535856
 H       -0.506801737    -2.968824372     0.763974450
 H       -0.696623785    -2.844406335     2.506633186
 H        0.859196245    -2.471913981     1.779528037
 H       -0.664411335     0.872197634     2.869151817
 H        0.757242791    -0.169779627     3.057241365
 H       -0.801736678    -0.672989630     3.696954578

