187   

Si        0.000000000     0.000000000     0.000000000
 C        1.865093862     0.000000000     0.000000000
 C       -0.671940312     1.714352300     0.000000000
 C        0.109594756     2.788908414    -0.437225889
 C       -0.403037690     4.085818233    -0.435659528
 C       -1.706671857     4.338277812    -0.000286228
 C       -2.490162841     3.260243095     0.432294602
 C       -1.982227777     1.963978441     0.429150436
 C       -2.283905302     5.678120852     0.018545685
 C       -1.641353505     6.791968148    -0.371441181
 C       -2.217430748     8.131919839    -0.353042508
 C       -1.432499126     9.207240078    -0.789028247
 C       -1.939507343    10.504170403    -0.789497383
 C       -3.246107175    10.754279198    -0.353944562
 C       -4.031271157     9.683318909     0.087241898
 C       -3.518034723     8.387172587     0.092177236
Si       -3.940031186    12.455518003    -0.344159318
 C       -5.702723641    12.354788362    -0.821018703
 C       -6.725114717    12.913900416    -0.161803234
 C       -8.125816305    12.807434238    -0.580773864
 C       -9.111032310    13.437927061     0.193448144
 C      -10.449251575    13.364722753    -0.163625668
 C      -10.833830936    12.610565889    -1.283585532
 C       -9.864660526    11.934550944    -2.030441576
 C       -8.525987061    12.013452908    -1.659234495
 N      -12.239568329    12.592201285    -1.577449108
 C      -12.633609516    13.752037306    -2.412802278
 C      -12.724060368    11.305352035    -2.108183272
 C      -12.182654393    13.684928258    -3.885472377
 C      -11.621042908    15.013727733    -4.426927405
 N      -10.191270345    15.269582270    -4.151960875
 C       -9.287054769    14.243970664    -4.493594253
 C       -9.555542263    13.393168200    -5.587212516
 C       -8.668968408    12.383153984    -5.926745001
 C       -7.471614898    12.199965078    -5.222096056
 C       -7.183366981    13.076341635    -4.172319769
 C       -8.053003831    14.102702332    -3.829940661
 C       -9.964072275    15.922393310    -2.849399943
 C       -6.570976395    11.118108075    -5.621999300
 C       -5.403025983    10.849848846    -5.022882473
Si       -4.272932379     9.499687408    -5.517458779
 C       -4.369510315     9.115685392    -7.311583909
 C       -4.692736269    10.122256213    -8.228741737
 C       -4.768668935     9.841650335    -9.592037358
 C       -4.512712292     8.553719748   -10.070918493
 C       -4.180940771     7.549254999    -9.152330988
 C       -4.107072247     7.826005724    -7.789437469
 C       -4.580168514     8.213654463   -11.488252800
 C       -4.885839413     9.079419730   -12.469496846
 C       -4.953164657     8.738848204   -13.886716511
 C       -4.700084739     7.450895679   -14.365563041
 C       -4.775710758     7.169162219   -15.729559457
 C       -5.114516577     8.170290706   -16.645066878
 C       -5.370239192     9.462858092   -16.167249554
 C       -5.287828640     9.742345707   -14.806084880
Si       -5.218772020     7.815555388   -18.448178417
 C       -5.191325307     5.981776716   -18.790043251
 C       -6.828331705     8.584252550   -19.113218638
 C       -3.746457016     8.624644909   -19.343204658
 C       -2.498290545     9.974509024    -5.032836825
 C       -4.764268409     7.959275458    -4.509125197
 C       -3.744533929    13.163678814     1.411697811
 C       -3.032566973    13.623311096    -1.538403169
 C       -0.626360147    -0.909032238    -1.550286264
 C       -0.652939014    -0.914553927     1.536716202
 H        1.137193036     2.654301959    -0.786298149
 H        0.226636488     4.904711516    -0.778945782
 H       -3.508904122     3.434549207     0.773793425
 H       -2.641363627     1.162737537     0.774838803
 H       -3.313835238     5.727481312     0.384204379
 H       -0.611666931     6.741222797    -0.737177056
 H       -0.415985462     9.029799560    -1.134545554
 H       -1.281713604    11.303339748    -1.141834237
 H       -5.060376658     9.822235007     0.435768578
 H       -4.144504383     7.569710801     0.444258783
 H       -5.872845621    11.762111365    -1.737671579
 H       -6.592443796    13.509082785     0.750387284
 H       -8.823957354    14.009218211     1.075426060
 H      -11.213455062    13.864642469     0.429318847
 H      -10.146028779    11.338034880    -2.894996411
 H       -7.785797734    11.455713006    -2.238207180
 H      -13.827648489    11.321243870    -2.099878779
 H      -12.399790728    10.493302567    -1.433859392
 H      -12.388051002    11.064843821    -3.127852408
 H      -10.758965489    16.656900137    -2.645684403
 H       -9.012914896    16.484055867    -2.891339769
 H       -9.919624589    15.211328964    -2.004743779
 H      -10.460155543    13.524330045    -6.173048433
 H       -8.907639100    11.727516213    -6.765037012
 H       -6.245882146    12.978726956    -3.620498798
 H       -7.778819651    14.768846762    -3.016883515
 H       -6.942656742    10.543386447    -6.481617831
 H       -5.060310716    11.430922778    -4.152419506
 H       -4.897511380    11.150913231    -7.912439362
 H       -5.027767061    10.640379896   -10.284526983
 H       -3.976945349     6.540163200    -9.504806028
 H       -3.841922452     7.002187789    -7.120753593
 H       -4.358113846     7.167531584   -11.718637807
 H       -5.107629616    10.125690025   -12.239366245
 H       -4.438531149     6.652444176   -13.673561543
 H       -4.565580369     6.143124116   -16.043800448
 H       -5.640355178    10.285032288   -16.835964308
 H       -5.488197611    10.752614785   -14.454176331
 H      -13.742287536    13.827782290    -2.355117870
 H      -12.236053126    14.667966125    -1.922427274
 H      -11.418463492    12.888981497    -4.005877818
 H      -13.030518699    13.365249335    -4.518495002
 H      -11.744841725    15.043074118    -5.536730800
 H      -12.216412537    15.870132854    -4.041686884
 H        2.263180094    -1.029291393     0.050340335
 H        2.259669604     0.551860922     0.872717930
 H        2.276282145     0.470941139    -0.909871839
 H       -5.295042880     5.776848120   -19.870513894
 H       -6.024084680     5.470242732   -18.274135029
 H       -4.248635786     5.516630894   -18.452450823
 H       -6.749663207     9.691571557   -18.908013822
 C       -7.017682186     8.398290052   -20.629150272
 C       -8.077519391     8.058344173   -18.383242150
 H       -3.841390713     8.315617358   -20.424312667
 C       -3.756405186    10.162676977   -19.285477964
 C       -2.388902738     8.120666564   -18.819915456
 H       -2.544597433    10.256505549    -3.938757339
 C       -1.495278733     8.816776114    -5.174538384
 C       -1.979298567    11.188578175    -5.823318397
 H       -4.009028819     7.162087995    -4.766311537
 C       -4.709562810     8.195440350    -2.991749395
 C       -6.162266393     7.435081649    -4.882867766
 H       -4.268322324    14.162831617     1.405624732
 C       -4.407823445    12.281226728     2.484413779
 C       -2.275718178    13.398952347     1.806587709
 H       -1.966937138    13.668536872    -1.168755779
 C       -3.008529387    13.128564315    -2.993010390
 C       -3.605271593    15.052777851    -1.515031244
 H       -0.153852781    -1.933031116    -1.518189585
 C       -2.154915845    -1.088526295    -1.575599500
 C       -0.187904869    -0.221539460    -2.856278916
 H       -1.777695262    -0.919132465     1.440413937
 C       -0.183969229    -2.377840073     1.625154830
 C       -0.294956777    -0.193192780     2.848720409
 H       -6.196821208     8.818353075   -21.224647784
 H       -7.931414652     8.913791609   -20.959053400
 H       -7.137684601     7.346295903   -20.919984457
 H       -8.039370486     8.209447231   -17.294807565
 H       -8.262195581     6.990941503   -18.562565629
 H       -8.972508480     8.590609875   -18.735561660
 H       -4.662230428    10.609446559   -19.714332909
 H       -2.912759468    10.565210587   -19.865015510
 H       -3.638185195    10.551767865   -18.264292250
 H       -2.265666604     7.033128322   -18.901846079
 H       -2.205859487     8.398047719   -17.771691533
 H       -1.570989961     8.567147259   -19.403431023
 H       -1.741830878     7.950437011    -4.545850517
 H       -0.494252258     9.145873742    -4.860824081
 H       -1.391125510     8.462304391    -6.209178592
 H       -2.616770881    12.078164633    -5.726316815
 H       -1.864977738    10.980508526    -6.896747037
 H       -0.983403105    11.478545063    -5.460262727
 H       -3.718150485     8.508673135    -2.632043643
 H       -4.941207537     7.263872103    -2.456059630
 H       -5.437639578     8.941567561    -2.644030181
 H       -6.264585558     7.184157279    -5.947207319
 H       -6.964665905     8.143572218    -4.630807447
 H       -6.378621983     6.511903347    -4.327265432
 H       -5.475294529    12.095674148     2.303802675
 H       -4.341596385    12.768486285     3.467542726
 H       -3.916961017    11.303141056     2.593679068
 H       -1.757391258    14.113256531     1.154358820
 H       -1.683575161    12.473001568     1.828103578
 H       -2.221726139    13.818251481     2.822035396
 H       -2.603869043    12.112311986    -3.102610480
 H       -2.365075566    13.779232241    -3.602880735
 H       -3.999679508    13.151363812    -3.468142013
 H       -3.563168960    15.525491116    -0.525902740
 H       -4.646621947    15.103513146    -1.865117862
 H       -3.024232382    15.701343226    -2.186501698
 H       -2.540047177    -1.663486738    -0.723932694
 H       -2.453245095    -1.641699767    -2.478120796
 H       -2.697100182    -0.132870143    -1.610027568
 H        0.901105535    -0.128206792    -2.956027021
 H       -0.621284612     0.781707372    -2.977073561
 H       -0.525990327    -0.808223711    -3.722564747
 H       -0.466664788    -2.978771366     0.751198235
 H       -0.644428173    -2.867252994     2.495792396
 H        0.901752691    -2.472547263     1.759347943
 H       -0.648117109     0.847390199     2.882685418
 H        0.784189956    -0.182291430     3.051867478
 H       -0.764635955    -0.704934064     3.700820667

