187   

Si        0.000000000     0.000000000     0.000000000
 C        1.865379570     0.000000000     0.000000000
 C       -0.671976476     1.714024142     0.000000000
 C        0.131247309     2.800142816    -0.362467800
 C       -0.384271089     4.095990639    -0.360259926
 C       -1.713321277     4.335474135    -0.001457440
 C       -2.518230931     3.245908779     0.357224538
 C       -2.006293256     1.951232306     0.356714056
 C       -2.294898016     5.673532329     0.015133425
 C       -1.634552839     6.799477684    -0.304885079
 C       -2.218542473     8.136666264    -0.287494291
 C       -1.415924452     9.228426838    -0.644948760
 C       -1.930425853    10.522639686    -0.642850153
 C       -3.265807502    10.752363843    -0.291487146
 C       -4.070063727     9.664398476     0.065683762
 C       -3.548750824     8.371544827     0.071326010
Si       -3.971571789    12.451173257    -0.280150089
 C       -5.786938416    12.316531161    -0.445506064
 C       -6.701870702    12.912543265     0.329117494
 C       -8.146685704    12.760639138     0.139686991
 C       -9.019222727    13.431443807     1.010767649
 C      -10.392641961    13.317153762     0.869607972
 C      -10.932313107    12.501339727    -0.143431850
 C      -10.065985038    11.836239613    -1.021126429
 C       -8.689431468    11.984960400    -0.887140722
 N      -12.352640108    12.428481053    -0.233100443
 C      -12.966632484    11.747585681     0.932385585
 C      -12.876510151    11.920735272    -1.514423578
 C      -12.396602174    10.347404975     1.226946311
 C      -11.391076368    10.371186661     2.397347651
 N      -10.377424705     9.301690669     2.337419941
 C      -10.857676333     7.986102728     2.201814718
 C      -12.015822639     7.596493885     2.909398343
 C      -12.507688503     6.307434131     2.792203592
 C      -11.847350653     5.346896483     2.011476187
 C      -10.684623893     5.726480644     1.336681409
 C      -10.186364495     7.019990498     1.429712562
 C       -9.198227475     9.666125934     1.536289125
 C      -12.411348295     3.999440322     1.922634169
 C      -11.870390881     3.002040368     1.209671366
Si      -12.574542025     1.318825685     1.098432985
 C      -13.488723057     0.854844466     2.625748074
 C      -13.052597056     1.333188410     3.867054851
 C      -13.731775102     0.992907964     5.035693796
 C      -14.852164143     0.158044054     4.993373150
 C      -15.281570134    -0.326431923     3.751087641
 C      -14.607829723     0.015179259     2.580818629
 C      -15.593790979    -0.224503950     6.190383329
 C      -15.287848226     0.169947233     7.438098964
 C      -16.028857391    -0.212079538     8.635603388
 C      -17.151478685    -1.042893870     8.594894128
 C      -17.830190356    -1.382827949     9.765134777
 C      -17.403116267    -0.892357602    11.003159280
 C      -16.277640323    -0.058212323    11.046672095
 C      -15.599044798     0.274526030     9.877678574
Si      -18.287942410    -1.331643856    12.556487828
 C      -19.948377815    -2.105613388    12.204807178
 C      -17.237130794    -2.564630530    13.556066275
 C      -18.506235766     0.252879057    13.588665427
 C      -13.728510011     1.234492424    -0.411951215
 C      -11.146181606     0.087989756     0.844262235
 C       -3.481691779    13.325384270     1.334241592
 C       -3.294513752    13.445542125    -1.752228353
 C       -0.621061659    -0.918619786    -1.546598587
 C       -0.653190387    -0.906622299     1.541369263
 H        1.178448273     2.675667514    -0.651827790
 H        0.263035877     4.924224839    -0.642751254
 H       -3.556238598     3.410467872     0.640504951
 H       -2.681760684     1.141283126     0.646224344
 H       -3.345859276     5.711478073     0.317163874
 H       -0.583800729     6.762662276    -0.606470112
 H       -0.377222526     9.066257318    -0.926473677
 H       -1.257375948    11.336025887    -0.926872710
 H       -5.119897944     9.786462637     0.353059625
 H       -4.192329253     7.541335973     0.357541329
 H       -6.090770442    11.676043463    -1.292107928
 H       -6.438182637    13.563293801     1.172134375
 H       -8.613388278    14.058942539     1.804524673
 H      -11.062327772    13.865226637     1.529460392
 H      -10.456899700    11.202001865    -1.811774528
 H       -8.031909582    11.472942923    -1.591746767
 H      -13.961558528    12.123719584    -1.551997846
 H      -12.719308762    10.843471789    -1.678210519
 H      -12.416699131    12.479896411    -2.347796536
 H       -8.887397189    10.700004834     1.776421267
 H       -9.367395281     9.612973492     0.448248876
 H       -8.353231690     9.008436652     1.807861036
 H      -12.527525720     8.309915147     3.548918137
 H      -13.415798411     6.032226058     3.330303462
 H      -10.151464760     4.999257132     0.722870869
 H       -9.282631407     7.273899831     0.884807543
 H      -13.331560594     3.876651857     2.511768552
 H      -10.953071038     3.153747113     0.621149523
 H      -12.178690255     1.987197756     3.962361218
 H      -13.377325927     1.383589663     5.987954767
 H      -16.151266155    -0.978091709     3.696172144
 H      -14.989243598    -0.393449020     1.641349467
 H      -16.450742565    -0.879347903     6.008108467
 H      -14.430276599     0.824539593     7.620238869
 H      -17.506623842    -1.434721231     7.643571310
 H      -18.701215798    -2.036955998     9.669785208
 H      -15.898395350     0.355105626    11.985584097
 H      -14.725953619     0.922244746     9.931765521
 H      -12.844429492    12.418346283     1.812233102
 H      -14.063021451    11.686237406     0.753650678
 H      -13.213896133     9.637495941     1.451604609
 H      -11.907350328     9.935903529     0.322655984
 H      -10.860281010    11.350834030     2.433187377
 H      -11.928172711    10.283350124     3.368813331
 H        2.263516336    -1.028863884     0.057378888
 H        2.260275151     0.557595398     0.868843695
 H        2.275841242     0.464471809    -0.913534139
 H      -20.491944007    -2.324440253    13.141238306
 H      -19.848326249    -3.054403871    11.649200861
 H      -20.582023928    -1.427917913    11.604313674
 H      -17.857854082    -2.831150032    14.459825879
 C      -16.948108129    -3.860526598    12.776417813
 C      -15.902458508    -1.978923677    14.050642521
 H      -17.463519448     0.629914316    13.800927442
 C      -19.258545745     1.356002893    12.822548421
 C      -19.204766380     0.014517534    14.939159639
 H      -14.095257582     0.169117868    -0.467387595
 C      -14.952578605     2.155878904    -0.262755164
 C      -13.017218438     1.560698877    -1.737386350
 H      -10.626714074     0.404937802    -0.105639285
 C      -10.120335932     0.140715656     1.990721358
 C      -11.623893577    -1.363722177     0.666785011
 H       -4.028520085    14.312605851     1.332157632
 C       -3.916902633    12.537262066     2.583339689
 C       -1.973707071    13.616523099     1.434049661
 H       -2.178553038    13.509940936    -1.596370440
 C       -3.545950832    12.748323975    -3.101039920
 C       -3.850060661    14.879005172    -1.816244644
 H       -0.137565046    -1.937528154    -1.512225990
 C       -2.147472495    -1.116247950    -1.570242203
 C       -0.192305159    -0.230250662    -2.855343805
 H       -1.777849836    -0.912794837     1.444009350
 C       -0.181494674    -2.368254050     1.639608906
 C       -0.298038389    -0.175782417     2.848927044
 H      -17.855278726    -4.390090855    12.458344687
 H      -16.388070641    -4.564011056    13.409157765
 H      -16.330264317    -3.692388562    11.882473026
 H      -16.023784950    -1.093889259    14.687876067
 H      -15.222797756    -1.713227456    13.228611221
 H      -15.368796379    -2.723505891    14.659339975
 H      -18.785322219     1.619872508    11.865816804
 H      -19.282383486     2.279722185    13.418146659
 H      -20.304668588     1.096270905    12.613180644
 H      -18.684418851    -0.712839023    15.575622950
 H      -20.244893243    -0.320092186    14.830218911
 H      -19.242709317     0.952331959    15.512449536
 H      -15.550888291     1.946092178     0.634714121
 H      -15.628111857     2.028895276    -1.120106331
 H      -14.683127302     3.221874573    -0.237068403
 H      -12.177225470     0.889837276    -1.957823146
 H      -12.642343189     2.593077387    -1.778090909
 H      -13.720348873     1.456755914    -2.576260499
 H       -9.687806911     1.138988170     2.143803594
 H       -9.277776896    -0.530961237     1.774252834
 H      -10.537814711    -0.190982850     2.952439950
 H      -12.287829201    -1.501559291    -0.196021324
 H      -12.142154619    -1.755421637     1.553846683
 H      -10.762116367    -2.025867237     0.499436373
 H       -4.993559888    12.321635866     2.615784924
 H       -3.689393364    13.113706738     3.491175200
 H       -3.387291380    11.578969481     2.687841330
 H       -1.599771723    14.262180762     0.629238017
 H       -1.361067907    12.703850757     1.445984315
 H       -1.754324176    14.142680110     2.374751760
 H       -3.142199758    11.726958216    -3.146235898
 H       -3.055755586    13.307307228    -3.911060316
 H       -4.611222283    12.696435753    -3.364467522
 H       -3.629165074    15.472460942    -0.919626949
 H       -4.937221032    14.910857783    -1.976931439
 H       -3.399489479    15.419816336    -2.661019243
 H       -2.525928221    -1.688500627    -0.713781097
 H       -2.438960875    -1.680616871    -2.468046382
 H       -2.700592197    -0.167346581    -1.613205185
 H        0.895338530    -0.123555118    -2.956543367
 H       -0.637904886     0.767331955    -2.978767332
 H       -0.523999676    -0.823815764    -3.719336778
 H       -0.462348777    -2.975491578     0.769478924
 H       -0.641588903    -2.852754372     2.513242979
 H        0.904304042    -2.459884536     1.775223749
 H       -0.653966442     0.864155833     2.875451302
 H        0.780754809    -0.161012067     3.053305818
 H       -0.767806949    -0.682735547     3.703888233

