187   

Si        0.000000000     0.000000000     0.000000000
 C        1.865750549     0.000000000     0.000000000
 C       -0.677458240     1.711531531     0.000000000
 C        0.157809764     2.820469955     0.166849988
 C       -0.368667174     4.112117670     0.164857402
 C       -1.740625157     4.324609490     0.007400288
 C       -2.576762345     3.212007246    -0.157126012
 C       -2.053394548     1.922112162    -0.163787885
 C       -2.334580648     5.657392236    -0.000855113
 C       -1.644676959     6.802165489     0.138758946
 C       -2.235337265     8.136404682     0.130976695
 C       -3.607094107     8.353070300    -0.026254297
 C       -4.128454263     9.646502682    -0.027535200
 C       -3.283571413    10.752192892     0.110383690
 C       -1.907529853    10.539382414     0.264499137
 C       -1.392457117     9.246009297     0.279686845
Si       -3.942663247    12.470264718     0.112283521
 C       -2.677354701    13.599019798    -0.566613938
 C       -2.255146832    14.741524735    -0.009311463
 C       -1.235112269    15.610110516    -0.598944301
 C       -0.869539972    16.785160405     0.073763766
 C        0.090199567    17.639493500    -0.443054842
 C        0.688805677    17.368480477    -1.694253443
 C        0.320478125    16.189131255    -2.371719707
 C       -0.608778813    15.321373598    -1.814767923
 N        1.656809550    18.240451255    -2.203643041
 C        1.513788257    19.679033454    -1.931882682
 C        2.254426582    17.914099608    -3.503919592
 C        0.133318417    20.286417955    -2.245815388
 C       -0.152442987    20.494610763    -3.743359446
 N        0.680616159    21.494927491    -4.442129496
 C        1.901798240    20.993552611    -4.961095393
 C        1.814585145    19.994933367    -5.952688614
 C        2.966367237    19.459885828    -6.503980726
 C        4.233682254    19.925357537    -6.118783937
 C        4.313236785    20.936454499    -5.159115525
 C        3.164512402    21.477849964    -4.590469110
 C        0.756386200    22.789572161    -3.748757871
 C        5.416042434    19.321619926    -6.735972223
 C        6.677777446    19.674412748    -6.456552353
Si        8.136958235    18.901101691    -7.244792611
 C        7.787238705    17.151781036    -7.694982497
 C        6.989139037    16.373885792    -6.844698179
 C        6.707587374    15.047705523    -7.159140920
 C        7.223820517    14.461838198    -8.322880141
 C        8.025284810    15.237776533    -9.164425818
 C        8.306715510    16.568304503    -8.854045578
 C        6.899753044    13.068206966    -8.608209354
 C        7.324227285    12.387650339    -9.686250619
 C        6.998256138    10.993620519    -9.968744150
 C        6.196376529    10.221314946    -9.124424900
 C        5.909458330     8.891595878    -9.432571404
 C        6.424501049     8.302982437   -10.591755862
 C        7.229313866     9.075339010   -11.440256765
 C        7.509449482    10.403821131   -11.132640861
Si        6.054483300     6.549086774   -11.011623631
 C        5.334936542     5.632578736    -9.555023939
 C        4.808253219     6.492767114   -12.448956862
 C        7.668278144     5.714869522   -11.580000871
 C        8.616229251    19.905718736    -8.786081784
 C        9.583371919    18.942551971    -6.010940360
 C       -5.496165087    12.575448572    -0.981219728
 C       -4.419268099    12.942728479     1.891219840
 C       -0.662459332    -0.893984247    -1.544047080
 C       -0.598778704    -0.931642779     1.548189521
 H        1.238413456     2.717851095     0.299552902
 H        0.304330675     4.958347563     0.291304179
 H       -3.648333208     3.355134893    -0.282581354
 H       -2.754053877     1.093733333    -0.301807534
 H       -3.420258174     5.674332156    -0.132595257
 H       -0.558623351     6.784475294     0.270852943
 H       -4.283158198     7.508748376    -0.145760084
 H       -5.209950885     9.753692636    -0.145469475
 H       -1.201346009    11.369312851     0.375834597
 H       -0.321348383     9.098196071     0.404569449
 H       -2.267449254    13.254039779    -1.531117994
 H       -2.645501736    15.118379870     0.944758787
 H       -1.336997328    17.026550022     1.028825017
 H        0.385983615    18.517602342     0.122684685
 H        0.757961716    15.942216321    -3.333524155
 H       -0.862722439    14.405602264    -2.351726330
 H        3.047424592    18.644124565    -3.752748124
 H        1.529224546    17.908029408    -4.334411261
 H        2.742019063    16.923586509    -3.443801304
 H       -0.268970845    23.137373803    -3.531689433
 H        1.215223481    23.533507269    -4.424737859
 H        1.325830164    22.772116885    -2.806649400
 H        0.835836072    19.656117334    -6.287606173
 H        2.885368588    18.680336306    -7.263096958
 H        5.286843321    21.316699848    -4.847697300
 H        3.259482201    22.266473372    -3.850335136
 H        5.167521882    18.530900464    -7.459215018
 H        6.905802403    20.474841083    -5.737551744
 H        6.561485333    16.777385021    -5.920212204
 H        6.080803559    14.460672136    -6.490251234
 H        8.439397732    14.806879308   -10.074015626
 H        8.940548460    17.123949445    -9.550420095
 H        6.262765583    12.585099972    -7.861242758
 H        7.961286700    12.869433956   -10.433700872
 H        5.785741853    10.654289888    -8.214005834
 H        5.275596686     8.338406329    -8.733830557
 H        7.659629695     8.668570197   -12.359766344
 H        8.134743414    10.988168524   -11.804937659
 H        1.743513760    19.833217289    -0.849248588
 H        2.306865503    20.229782851    -2.487620572
 H       -0.663706695    19.634057852    -1.829538276
 H        0.032869400    21.245268292    -1.703688289
 H       -0.074079187    19.518860102    -4.273419011
 H       -1.211145065    20.828254041    -3.867862842
 H        2.263087953    -1.030374521    -0.027437627
 H        2.274305135     0.490333822     0.901008779
 H        2.262468212     0.531602218    -0.883884381
 H        5.161049643     4.569649598    -9.800726727
 H        4.368980344     6.062176822    -9.236475790
 H        6.020857103     5.664891101    -8.688964720
 H        4.597144083     5.398639252   -12.627098894
 C        3.477229182     7.186158966   -12.105423536
 C        5.352059142     7.090721674   -13.759103167
 H        8.011973483     6.291225852   -12.487779624
 C        8.780680962     5.800019782   -10.519137218
 C        7.485638999     4.244913950   -11.997939008
 H        9.529582550    19.401389522    -9.216248281
 C        7.512045721    19.895588300    -9.858332847
 C        8.988071836    21.365230634    -8.467835429
 H        9.758159807    20.030857862    -5.770383148
 C        9.251543972    18.210500010    -4.698062215
 C       10.886418626    18.364860508    -6.589969686
 H       -6.249853525    11.872896869    -0.521288252
 C       -6.116009730    13.983835651    -1.011098967
 C       -5.234516504    12.112952399    -2.425898951
 H       -4.723730501    14.028642664     1.853678253
 C       -5.609734256    12.132761587     2.435465275
 C       -3.240120746    12.807990979     2.872186351
 H       -1.787541727    -0.876636991    -1.451335865
 C       -0.287572361    -0.170718237    -2.850305572
 C       -0.220095284    -2.364985481    -1.640302227
 H       -0.076191258    -1.931657033     1.520060439
 C       -0.198731343    -0.220517673     2.854141114
 C       -2.115726211    -1.190695824     1.573891054
 H        2.977757224     6.760785316   -11.225430156
 H        2.770288610     7.079409789   -12.940699274
 H        3.590169851     8.266431405   -11.934540576
 H        6.253105621     6.584534909   -14.127759943
 H        5.575748308     8.163821620   -13.678441702
 H        4.599689060     6.995064174   -14.555603283
 H        9.005150740     6.830078477   -10.207055168
 H        9.717890580     5.390297547   -10.921939504
 H        8.554827771     5.221909184    -9.613294853
 H        6.753894948     4.109676385   -12.804787491
 H        7.187525001     3.596155639   -11.163688566
 H        8.436657976     3.841682135   -12.375454268
 H        7.225536493    18.885734303   -10.183037518
 H        7.855722790    20.422636113   -10.759585977
 H        6.595521827    20.408500417    -9.532008122
 H        9.827285962    21.459045945    -7.766968653
 H        8.145370712    21.942624306    -8.062775640
 H        9.298702586    21.881698764    -9.387810427
 H        8.357820549    18.601394725    -4.193067240
 H       10.081347698    18.320638042    -3.985328717
 H        9.108948868    17.128941795    -4.836722969
 H       11.239853978    18.894837533    -7.483643423
 H       10.806276428    17.297943227    -6.843687952
 H       11.694450311    18.442253709    -5.847878319
 H       -6.412801270    14.350086390    -0.019957996
 H       -7.028762384    13.980498756    -1.623674610
 H       -5.448747930    14.735108560    -1.457463796
 H       -4.824130766    11.095480297    -2.491010350
 H       -4.553586350    12.780631018    -2.971644898
 H       -6.175548787    12.101504721    -2.993827429
 H       -6.528580381    12.261484772     1.849550353
 H       -5.850264767    12.459386699     3.457629127
 H       -5.400858057    11.055496785     2.500788596
 H       -2.355714382    13.390194316     2.579283344
 H       -2.916909297    11.765627863     3.007733964
 H       -3.533674164    13.170818442     3.867130427
 H       -0.625003141     0.875327981    -2.878816256
 H       -0.762811042    -0.669391297    -3.707037878
 H        0.792157508    -0.175938234    -3.049542761
 H       -0.515547834    -2.965946873    -0.770605677
 H        0.864029623    -2.478332365    -1.772438397
 H       -0.687189571    -2.840357976    -2.515101279
 H        0.883666104    -0.068974409     2.955327352
 H       -0.506795255    -0.822902676     3.720689605
 H       -0.683698307     0.759251651     2.972316047
 H       -2.476825970    -1.755952740     0.705544771
 H       -2.705085663    -0.265923032     1.645016695
 H       -2.378478332    -1.788383126     2.459059651

