187   

Si        0.000000000     0.000000000     0.000000000
 C        1.865219115     0.000000000     0.000000000
 C       -0.681547468     1.709856122     0.000000000
 C        0.120385061     2.807864374     0.326954982
 C       -0.408217280     4.098689084     0.323241124
 C       -1.749016311     4.320738935    -0.001112885
 C       -2.552359056     3.218917595    -0.324469141
 C       -2.027480964     1.929668935    -0.323114461
 C       -2.345949301     5.652007275    -0.018351166
 C       -1.690850834     6.789722213     0.268714216
 C       -2.290743807     8.119812171     0.250587710
 C       -3.632624973     8.335908304    -0.074660906
 C       -4.166199183     9.624215600    -0.079922235
 C       -3.370629849    10.724484430     0.255634834
 C       -2.025347040    10.510826276     0.584185592
 C       -1.492577257     9.224559201     0.575916679
Si       -4.052519576    12.433067902     0.255654812
 C       -3.256951389    13.492390037     1.514916389
 C       -2.757011807    13.042677194     2.674077690
 C       -2.120672546    13.893696731     3.680079229
 C       -1.634680347    13.304985240     4.856878335
 C       -1.024385103    14.065413327     5.840095161
 C       -0.921751540    15.467662122     5.698540873
 C       -1.410637954    16.059615886     4.517629607
 C       -1.978082559    15.274838756     3.522479113
 N       -0.300777584    16.219682515     6.704190818
 C       -0.494339468    15.796318217     8.100366525
 C       -0.213026662    17.672682430     6.511988315
 C       -1.953505256    15.550719854     8.527573507
 C       -2.770754191    16.828980805     8.784431950
 N       -2.348885562    17.659135605     9.930859912
 C       -1.343088202    18.615524153     9.641725593
 C       -1.656432640    19.614241125     8.696998552
 C       -0.719767283    20.579568029     8.368143786
 C        0.538293902    20.605864671     8.990472375
 C        0.831858879    19.632415126     9.947703460
 C       -0.096883669    18.652849610    10.284183363
 C       -2.181895316    16.900986783    11.179709316
 C        1.489723439    21.649580807     8.603517508
 C        2.717556905    21.779879232     9.123247847
Si        3.899082787    23.087845077     8.632797669
 C        3.035685223    24.622199885     8.102056246
 C        1.837029884    24.993253375     8.726080021
 C        1.168794362    26.151191602     8.338199578
 C        1.685646551    26.972992375     7.327611799
 C        2.885238311    26.604361000     6.712785465
 C        3.555223001    25.442804862     7.096106857
 C        0.948389288    28.176185257     6.956404064
 C        1.330060822    29.044744559     6.004647923
 C        0.592311639    30.247854618     5.633871780
 C       -0.607048828    30.616253249     6.248703568
 C       -1.279690474    31.775609266     5.862771439
 C       -0.762936780    32.595718415     4.854871603
 C        0.440069087    32.228398157     4.236598849
 C        1.106457564    31.068053138     4.620478899
Si       -1.638124672    34.129180556     4.333665890
 C       -2.993029478    34.587304572     5.531159827
 C       -0.358974025    35.534167880     4.217334798
 C       -2.408178484    33.867169097     2.612696342
 C        5.006847823    23.490692804    10.125127505
 C        4.987055269    22.419322967     7.222630404
 C       -3.748212212    13.207928841    -1.455271345
 C       -5.926723395    12.392603026     0.581942816
 C       -0.652505645    -0.906487787    -1.541902467
 C       -0.616632815    -0.922219975     1.546759560
 H        1.176278227     2.696959183     0.588707309
 H        0.237979539     4.936842427     0.577802575
 H       -3.599436894     3.369783285    -0.580141095
 H       -2.702386637     1.109793179    -0.584483081
 H       -3.405259628     5.673989427    -0.290712554
 H       -0.631518107     6.768817199     0.540891111
 H       -4.274548997     7.495426242    -0.331130944
 H       -5.220313780     9.730355942    -0.349934733
 H       -1.356192865    11.335752908     0.852607140
 H       -0.444212081     9.078360150     0.829461265
 H       -3.228090727    14.562153092     1.258406500
 H       -2.781315148    11.981012721     2.958754361
 H       -1.724908349    12.226798762     4.996415880
 H       -0.619627936    13.576817995     6.721194785
 H       -1.348851140    17.132492454     4.368341421
 H       -2.333779716    15.755917565     2.610173210
 H        0.360186866    18.130542019     7.339884187
 H       -1.193643673    18.173587767     6.462827390
 H        0.347184436    17.884373779     5.582698118
 H       -3.098746427    16.314501677    11.365986189
 H       -2.074071559    17.610439162    12.019987743
 H       -1.321145328    16.214359370    11.186419169
 H       -2.643036721    19.626812740     8.237653011
 H       -0.971829269    21.340829107     7.628379782
 H        1.801258310    19.635080171    10.447681282
 H        0.161174545    17.912776088    11.035451060
 H        1.092613440    22.334303505     7.840209468
 H        3.096753243    21.077375189     9.880606417
 H        1.388474921    24.392045838     9.524294237
 H        0.235485692    26.420188796     8.829587421
 H        3.308731110    27.225209401     5.925512463
 H        4.489255325    25.207441389     6.578760153
 H        0.025824731    28.339796076     7.521255260
 H        2.252424845    28.881603728     5.439573102
 H       -1.028875183    29.996929641     7.038177692
 H       -2.213905116    32.011319968     6.380027300
 H        0.891674158    32.830925482     3.443314123
 H        2.038477836    30.798422375     4.127430032
 H        0.093116640    14.856961844     8.243401744
 H       -0.021480888    16.549082416     8.771963443
 H       -2.474864253    14.956411528     7.747028636
 H       -1.960615042    14.909535560     9.428790030
 H       -2.780245728    17.454125425     7.863657074
 H       -3.834509668    16.547379702     8.976128727
 H        2.262905984    -1.029669464    -0.043659937
 H        2.275530670     0.476627504     0.907421930
 H        2.260667639     0.545941156    -0.875905408
 H       -3.486559321    35.529400133     5.232469167
 H       -2.589168443    34.733137690     6.549547544
 H       -3.772140575    33.806928980     5.585607026
 H        0.394893207    35.202661284     3.445202193
 C       -0.957538474    36.871757323     3.747168180
 C        0.392063783    35.758283161     5.542302615
 H       -2.976749863    34.815298126     2.386608289
 C       -1.370595332    33.656495459     1.495666097
 C       -3.405902743    32.694725641     2.585841522
 H        5.521736284    22.525798065    10.402011591
 C        6.089351904    24.536761826     9.807405342
 C        4.193655008    23.965482203    11.342709562
 H        5.725546618    23.237552659     6.981598485
 C        5.783169865    21.161801075     7.614524357
 C        4.173019509    22.117227179     5.951633447
 H       -4.191029808    14.244517908    -1.411721868
 C       -2.248492291    13.341547590    -1.775117516
 C       -4.436902629    12.441037244    -2.597477656
 H       -6.377197940    11.781024971    -0.252083636
 C       -6.271958633    11.709738102     1.917556535
 C       -6.577433025    13.787151604     0.551834537
 H       -1.777119830    -0.913335003    -1.444431412
 C       -0.297870766    -0.175264125    -2.849314750
 C       -0.180251215    -2.367984218    -1.640642293
 H       -0.126988546    -1.938153670     1.512258691
 C       -0.190890468    -0.231077023     2.855129111
 C       -2.141689939    -1.128865117     1.571958789
 H       -1.448604515    36.807933752     2.767555519
 H       -0.161120826    37.623089341     3.642911386
 H       -1.682250373    37.290425108     4.458010538
 H        0.894584522    34.853955957     5.914500070
 H       -0.256923736    36.130456511     6.346080805
 H        1.179856724    36.512946804     5.406307807
 H       -0.662782391    34.488921527     1.394664520
 H       -1.878387364    33.567279505     0.524132350
 H       -0.789821333    32.731970810     1.622158691
 H       -4.232182627    32.807993127     3.299394141
 H       -2.928991721    31.723317172     2.780623034
 H       -3.868054191    32.616149844     1.591302068
 H        6.771778740    24.228582320     9.005058886
 H        6.716840616    24.710111280    10.693823564
 H        5.671239721    25.516109698     9.533270513
 H        3.434271917    23.242420349    11.669980684
 H        3.685461766    24.925154203    11.169154306
 H        4.859977196    24.123244102    12.202796068
 H        6.451293976    21.317454593     8.471109137
 H        6.425794881    20.849223830     6.778513219
 H        5.138622359    20.301371198     7.842673812
 H        3.613915792    22.984215140     5.573345278
 H        3.454436823    21.296170865     6.090003796
 H        4.844000229    21.805859226     5.138610587
 H       -1.693773147    13.927974624    -1.029728435
 H       -2.112063390    13.856413826    -2.736574279
 H       -1.744840435    12.369039737    -1.873685882
 H       -5.527789842    12.387733399    -2.490910001
 H       -4.061032925    11.414068434    -2.711501280
 H       -4.246701243    12.943912021    -3.556743997
 H       -5.891801484    10.681530540     1.993725545
 H       -7.362280888    11.644920871     2.038351345
 H       -5.897055077    12.264897891     2.789792421
 H       -6.441506593    14.311164554    -0.402738198
 H       -6.211689300    14.446138822     1.351849626
 H       -7.663221980    13.698127951     0.700395192
 H       -0.654170078     0.864587989    -2.875232274
 H       -0.767559356    -0.681910159    -3.704367344
 H        0.780885584    -0.160018144    -3.053792084
 H       -0.461998467    -2.975796121    -0.771173641
 H        0.905736996    -2.459183969    -1.774920785
 H       -0.639000296    -2.852010992    -2.515130789
 H        0.896166601    -0.117320256     2.955140308
 H       -0.517972733    -0.826778455     3.719396336
 H       -0.642653976     0.763742126     2.978874670
 H       -2.518826021    -1.696671375     0.712056612
 H       -2.699762210    -0.183236337     1.623372515
 H       -2.428171033    -1.701534974     2.466117389

