187   

Si        0.000000000     0.000000000     0.000000000
 C        1.867459025     0.000000000     0.000000000
 C       -0.638879904     1.725670517     0.000000000
 C       -0.007867684     2.666282206     0.823396378
 C       -0.452853737     3.984761356     0.859672989
 C       -1.527710417     4.402671775     0.067551672
 C       -2.164414551     3.458806139    -0.745799196
 C       -1.737114687     2.131698704    -0.766231822
 C       -2.008870409     5.781816065     0.091986767
 C       -1.459492571     6.732205267     0.866955115
 C       -1.875027532     8.125319306     0.952307585
 C       -1.167821934     8.962724959     1.827175133
 C       -1.509491873    10.303735740     1.959527628
 C       -2.541201694    10.849829663     1.184578272
 C       -3.228790727    10.024784413     0.289620755
 C       -2.892363408     8.675230406     0.169408622
Si       -2.958128538    12.627087647     1.393316563
 C       -4.426222962    13.048815855     0.391941262
 C       -4.491861984    14.090258112    -0.446958706
 C       -5.663946009    14.433657207    -1.251633586
 C       -5.587828750    15.556264797    -2.088498346
 C       -6.662384660    15.933714625    -2.874850464
 C       -7.838405975    15.154275853    -2.889609362
 C       -7.912686786    14.023256937    -2.060510205
 C       -6.842054265    13.683395987    -1.241853875
 N       -8.907620924    15.579878429    -3.707537763
 C       -8.544299143    15.981730998    -5.083209617
 C      -10.156426700    14.809198098    -3.618124650
 C       -7.482103371    15.111887520    -5.780569789
 C       -8.048930020    13.799875673    -6.354444111
 N       -7.167948717    12.637675329    -6.159135483
 C       -7.338354874    11.804936245    -5.048106332
 C       -8.619087540    11.638038122    -4.477964787
 C       -8.798933912    10.816462638    -3.378561859
 C       -7.741997813    10.055308613    -2.858742413
 C       -6.480369432    10.191387162    -3.444150229
 C       -6.270942893    11.054665374    -4.511789038
 C       -5.799724546    12.849442859    -6.652535478
 C       -8.004706080     9.209343307    -1.695103059
 C       -7.104650371     8.426649828    -1.084436681
Si       -7.492538298     7.385082816     0.374521029
 C       -6.887833352     5.673217536     0.060116139
 C       -6.231314145     5.341433063    -1.131123453
 C       -5.780156463     4.041714534    -1.353151726
 C       -5.975976112     3.041088688    -0.393709010
 C       -6.631797732     3.375335619     0.795346237
 C       -7.081012688     4.674654353     1.021909417
 C       -5.488719293     1.691478104    -0.663345122
 C       -5.619714627     0.659122266     0.186756281
 C       -5.143848909    -0.697928903    -0.054844092
 C       -4.484404172    -1.077235515    -1.226383389
 C       -4.049698620    -2.391531268    -1.405495038
 C       -4.280120037    -3.358781159    -0.422608154
 C       -4.950570472    -2.982141984     0.749703385
 C       -5.377225168    -1.670019276     0.928568656
Si       -3.720651400    -5.100943069    -0.626093610
 C       -2.604282096    -5.304230898    -2.105823603
 C       -2.816662393    -5.623526930     0.965675284
 C       -5.235426297    -6.230080717    -0.860306060
 C       -6.702980064     8.099835877     1.954726380
 C       -9.381487163     7.357019928     0.637277756
 C       -3.328037337    12.958608616     3.229642643
 C       -1.477906818    13.700867651     0.862096315
 C       -0.647286548    -0.950535146    -1.514386090
 C       -0.623438021    -0.887815664     1.564089513
 H        0.844335697     2.406702762     1.458161634
 H        0.053149946     4.692411346     1.514399580
 H       -3.018018116     3.756968283    -1.352725031
 H       -2.292185953     1.431265456    -1.395902589
 H       -2.861045052     5.996208590    -0.556430100
 H       -0.611095653     6.483383081     1.515547874
 H       -0.353157230     8.557099933     2.423932742
 H       -0.940890806    10.900685360     2.678400217
 H       -4.033442081    10.405284527    -0.348796917
 H       -3.433462519     8.049498102    -0.538949874
 H       -5.286572525    12.375370078     0.536763807
 H       -3.652141898    14.781190934    -0.604163759
 H       -4.677003798    16.155151640    -2.109052860
 H       -6.601915973    16.835068224    -3.478181301
 H       -8.793398200    13.387226042    -2.063474544
 H       -6.923624852    12.800840917    -0.604143403
 H      -10.938986392    15.303974209    -4.217152949
 H      -10.505516048    14.816495615    -2.568259131
 H      -10.066914008    13.761717998    -3.947606337
 H       -5.814032158    13.501165017    -7.541921633
 H       -5.373932495    11.878996733    -6.969773471
 H       -5.130932188    13.302086890    -5.900500507
 H       -9.476716736    12.150429569    -4.904066475
 H       -9.791283377    10.737482839    -2.932930316
 H       -5.636093247     9.621975337    -3.051289861
 H       -5.268731285    11.151428294    -4.916042073
 H       -9.049470739     9.279323912    -1.358588970
 H       -6.060266583     8.379013208    -1.426098619
 H       -6.057754409     6.077610049    -1.921762015
 H       -5.277947663     3.803565991    -2.288702266
 H       -6.793244265     2.618928044     1.561159660
 H       -7.576920394     4.876147155     1.975851500
 H       -4.992883717     1.563012262    -1.628947907
 H       -6.114303258     0.799448294     1.153255357
 H       -4.299507913    -0.344846389    -2.010093645
 H       -3.530064908    -2.628404438    -2.338227624
 H       -5.159002780    -3.694134526     1.553340756
 H       -5.896731036    -1.397242526     1.845239824
 H       -9.463631450    16.035683012    -5.704837126
 H       -8.164973592    17.030953980    -5.012269792
 H       -7.006236472    15.699711451    -6.586895931
 H       -6.658365786    14.883607704    -5.071804875
 H       -9.053226702    13.591289249    -5.926513823
 H       -8.210590784    13.902776693    -7.454014811
 H        2.266284860    -1.029412132     0.008344883
 H        2.278494568     0.525259318     0.878970172
 H        2.260203557     0.503347708    -0.901899894
 H       -2.285984098    -6.355754798    -2.221020070
 H       -1.690146388    -4.691421327    -2.002705327
 H       -3.108523764    -5.005775212    -3.041468967
 H       -3.573433839    -5.517807241     1.796820692
 C       -2.340428016    -7.086929711     0.944863880
 C       -1.621585373    -4.713734894     1.301142109
 H       -4.818338978    -7.261637717    -1.048179299
 C       -6.152724510    -6.307102213     0.372958757
 C       -6.084158910    -5.829407903    -2.081015845
 H       -7.428037805     7.862452301     2.787154481
 C       -5.355830835     7.461190794     2.326999327
 C       -6.537933250     9.628130963     1.893402762
 H       -9.697909199     8.439931769     0.671631967
 C      -10.118825349     6.673580342    -0.529585002
 C       -9.840407491     6.697105736     1.949561291
 H       -2.368034333    12.737853718     3.780423494
 C       -3.714877132    14.421307546     3.509465246
 C       -4.419579234    12.033464507     3.795775691
 H       -1.854645016    14.765039508     0.872304836
 C       -0.267485811    13.625285760     1.809148066
 C       -1.005534870    13.371003858    -0.566278946
 H       -1.770682173    -0.992809890    -1.393882279
 C       -0.334798425    -0.251796729    -2.850436659
 C       -0.125620080    -2.397029709    -1.587702344
 H       -0.288734112    -1.960510737     1.463141841
 C       -0.018407954    -0.321432831     2.861915381
 C       -2.154564292    -0.868995831     1.688689097
 H       -3.153575947    -7.807396974     0.788965647
 H       -1.882689985    -7.346563413     1.910555243
 H       -1.574406705    -7.277683167     0.181603911
 H       -1.893630894    -3.649196966     1.371077910
 H       -0.799581944    -4.803380251     0.578873090
 H       -1.203117987    -4.986514592     2.280398810
 H       -5.639364249    -6.655550221     1.277982933
 H       -6.968042340    -7.022245978     0.189495372
 H       -6.635912642    -5.347796029     0.605561612
 H       -5.521762676    -5.830760668    -3.023585727
 H       -6.547902990    -4.838453311    -1.971880998
 H       -6.910464578    -6.542054879    -2.215796737
 H       -5.404740617     6.371125212     2.451037430
 H       -4.995464459     7.865369246     3.283420924
 H       -4.562241661     7.668064345     1.595140249
 H       -7.471552151    10.164248688     1.682615228
 H       -5.793782553     9.941882386     1.146058888
 H       -6.176282641    10.004106810     2.861449318
 H       -9.886794726     7.103909710    -1.513447829
 H      -11.205574898     6.769382475    -0.398736867
 H       -9.909002826     5.595785490    -0.590161334
 H       -9.405673830     7.152755192     2.848019224
 H       -9.629915104     5.619440010     1.982129321
 H      -10.930694561     6.796689385     2.055880275
 H       -2.943988310    15.141777877     3.207440490
 H       -3.869255065    14.570828436     4.587466457
 H       -4.654708813    14.715738861     3.020393976
 H       -4.186442227    10.965579739     3.675603742
 H       -5.406881205    12.215677956     3.349342149
 H       -4.533305012    12.201975521     4.875989102
 H       -0.504437120    13.899564092     2.844784206
 H        0.511093974    14.327861448     1.477411336
 H        0.204794127    12.633479136     1.820867756
 H       -1.800699026    13.444435446    -1.321187875
 H       -0.571471377    12.363963220    -0.647939603
 H       -0.218278855    14.072011000    -0.875976740
 H       -0.694388238     0.784850865    -2.900877151
 H       -0.819091053    -0.788030752    -3.678454677
 H        0.738845391    -0.234170703    -3.080158919
 H       -0.384941288    -2.995304792    -0.703707240
 H        0.962037957    -2.455277627    -1.723252182
 H       -0.570829728    -2.910379542    -2.452456483
 H        1.076996278    -0.370353423     2.890418281
 H       -0.375091771    -0.901657306     3.725056087
 H       -0.315397708     0.720035784     3.050400688
 H       -2.668081334    -1.342448006     0.838243738
 H       -2.566450867     0.145439959     1.792922222
 H       -2.472250656    -1.422426748     2.583167101

