187   

Si        0.000000000     0.000000000     0.000000000
 C        1.865010047     0.000000000     0.000000000
 C       -0.682579446     1.709696199     0.000000000
 C        0.156828710     2.826985140     0.045608553
 C       -0.376694429     4.115917742     0.044936938
 C       -1.758550852     4.316198245     0.007062094
 C       -2.598559565     3.195826522    -0.038287154
 C       -2.068975428     1.908955038    -0.045522462
 C       -2.365561772     5.642505349     0.004683995
 C       -1.681169301     6.798408778     0.037894614
 C       -2.295347802     8.121842575     0.035275014
 C       -1.468833310     9.251932052     0.072320954
 C       -2.013269455    10.534598403     0.071259859
 C       -3.399653785    10.714766629     0.023772685
 C       -4.227888146     9.585806860    -0.014112990
 C       -3.680889020     8.304680398    -0.004689094
Si       -4.171330683    12.385964862     0.020137817
 C       -5.679584655    12.377847007    -1.014564604
 C       -5.832553609    11.573323217    -2.075073532
 C       -7.023596188    11.540784763    -2.923225552
 C       -7.051616417    10.646816405    -4.005161977
 C       -8.151591005    10.572944280    -4.840565805
 C       -9.298516375    11.355387310    -4.579322355
 C       -9.271374457    12.251111943    -3.496341675
 C       -8.133639966    12.357831294    -2.703675458
 N      -10.397714769    11.252231471    -5.452785145
 C      -10.803379500     9.883345084    -5.846145990
 C      -11.536647911    12.148219539    -5.196785756
 C      -10.665616074     8.790019583    -4.773826330
 C      -11.565864101     8.995990198    -3.540662772
 N      -10.936631546     8.582216318    -2.264704755
 C      -10.259317711     7.336185545    -2.327675765
 C      -10.992100775     6.212100344    -2.759081347
 C      -10.380992858     4.972035957    -2.839302175
 C       -9.039951246     4.800669271    -2.461113379
 C       -8.324310228     5.913002394    -2.013451163
 C       -8.920813410     7.167650692    -1.941007275
 C      -10.197271608     9.673252753    -1.607282708
 C       -8.449534655     3.465250549    -2.568469789
 C       -7.184879697     3.166629994    -2.241603724
Si       -6.478453568     1.486327352    -2.387984065
 C       -7.258452105     0.527038803    -3.749821237
 C       -7.670300316     1.186598882    -4.913793243
 C       -8.263404167     0.478454229    -5.957444851
 C       -8.445229699    -0.904742879    -5.869095287
 C       -8.023493213    -1.564394817    -4.707483669
 C       -7.434857830    -0.858671098    -3.660789964
 C       -9.060900364    -1.686964987    -6.935953208
 C       -9.507352036    -1.178755909    -8.097133186
 C      -10.123061534    -1.960402860    -9.164283447
 C      -10.309710165    -3.342260371    -9.075197336
 C      -10.903098569    -4.050746329   -10.119813755
 C      -11.327615331    -3.390038976   -11.276813809
 C      -11.141240115    -2.003983364   -11.368864461
 C      -10.544347889    -1.300264497   -10.326528156
Si      -12.112430601    -4.310644806   -12.664190553
 C      -12.605186753    -6.035390271   -12.152289155
 C      -13.641433219    -3.334408063   -13.241053401
 C      -10.888467428    -4.430241952   -14.117175671
 C       -4.619820265     1.631961402    -2.762442123
 C       -6.687942448     0.578947435    -0.728341542
 C       -4.659552961    12.847373600     1.798827617
 C       -2.954425820    13.686284886    -0.643725867
 C       -0.651767776    -0.871925781    -1.561465283
 C       -0.613400869    -0.949507842     1.530756463
 H        1.245596072     2.733166080     0.081722766
 H        0.298484172     4.968790816     0.076948963
 H       -3.679103714     3.335524645    -0.062401229
 H       -2.771516922     1.070400554    -0.094715186
 H       -3.459865500     5.644390099    -0.027654514
 H       -0.588171181     6.799547606     0.070570018
 H       -0.387835186     9.130445126     0.104138440
 H       -1.319529200    11.378749724     0.106148664
 H       -5.320488281     9.667189767    -0.049823371
 H       -4.346349582     7.443138174    -0.031786566
 H       -6.456712951    13.096744061    -0.719020476
 H       -5.060984295    10.855223059    -2.391787723
 H       -6.186812532    10.010470750    -4.202453054
 H       -8.131388244     9.916365453    -5.707249703
 H      -10.129158508    12.874522705    -3.268123309
 H       -8.125490763    13.079572228    -1.885756222
 H      -12.256555135    12.070805354    -6.030090787
 H      -11.180753651    13.195082689    -5.186002391
 H      -12.068758903    11.945356525    -4.254079302
 H      -10.862540365    10.545358116    -1.494057573
 H       -9.294919462     9.999962735    -2.153292753
 H       -9.905832193     9.355067437    -0.590742484
 H      -12.039645953     6.323406784    -3.027100463
 H      -10.956351976     4.114292825    -3.189026535
 H       -7.279721468     5.806221357    -1.717731356
 H       -8.328752480     8.013975330    -1.602160446
 H       -9.154192109     2.715354556    -2.956956271
 H       -6.499110475     3.930995966    -1.846388066
 H       -7.548505087     2.267753445    -5.041704630
 H       -8.582391760     1.015246518    -6.849003550
 H       -8.155020502    -2.640938938    -4.618812754
 H       -7.124731951    -1.427613232    -2.780259211
 H       -9.142605770    -2.758018648    -6.728983918
 H       -9.424745262    -0.107626322    -8.303811149
 H       -9.991122598    -3.880020954    -8.184072401
 H      -11.022425445    -5.130188319    -9.991877296
 H      -11.453208188    -1.434422067   -12.248858192
 H      -10.406523770    -0.224502005   -10.417274284
 H      -11.848965469     9.906223297    -6.223455813
 H      -10.166199735     9.610030128    -6.723696477
 H      -10.884868782     7.806045996    -5.233342086
 H       -9.607341435     8.707873618    -4.447665314
 H      -11.878135519    10.057928551    -3.452059913
 H      -12.505899051     8.408756580    -3.648790717
 H        2.262931604    -1.030367682    -0.020048868
 H        2.273121651     0.496338240     0.898097569
 H        2.263288167     0.525253313    -0.886817671
 H      -13.110235954    -6.566529288   -12.978788970
 H      -13.305513960    -6.009943246   -11.297673389
 H      -11.730835558    -6.639937255   -11.854012087
 H      -13.257066143    -2.326690670   -13.574536445
 C      -14.367542770    -3.979727494   -14.434729325
 C      -14.653838846    -3.099515091   -12.105421820
 H      -11.409651043    -5.048250735   -14.904320808
 C      -10.533795315    -3.067797239   -14.739244128
 C       -9.583596241    -5.150747659   -13.731229049
 H       -4.149004202     2.115252977    -1.857445595
 C       -3.952406808     0.263103248    -2.977721978
 C       -4.326961304     2.528569878    -3.977979948
 H       -6.177086683    -0.419599148    -0.849730408
 C       -6.030995919     1.306110251     0.458498926
 C       -8.168514082     0.322612210    -0.393887279
 H       -5.118645673    13.876202841     1.739695747
 C       -5.712454283    11.887487511     2.381873464
 C       -3.457733177    12.913540394     2.757100147
 H       -2.061762490    13.659138801     0.046044597
 C       -2.470204534    13.361019733    -2.068199742
 C       -3.524399320    15.115968039    -0.625688627
 H       -1.777979938    -0.809730507    -1.498991243
 C       -0.208665010    -0.165641287    -2.855766553
 C       -0.265520514    -2.358724807    -1.645414505
 H       -0.076927607    -1.942251725     1.501326883
 C       -0.239518574    -0.244302709     2.847480850
 C       -2.126983932    -1.230616854     1.536398677
 H      -13.724710091    -4.112721515   -15.314499370
 H      -15.201124748    -3.339178192   -14.757744671
 H      -14.807919095    -4.955784614   -14.191601617
 H      -14.218328993    -2.588216672   -11.234903666
 H      -15.118352687    -4.027171386   -11.745697873
 H      -15.474828950    -2.459267523   -12.458303551
 H      -11.406625497    -2.519475040   -15.115483560
 H       -9.867519269    -3.211583543   -15.602413718
 H       -9.994562225    -2.409036597   -14.043863278
 H       -9.742356628    -6.169048760   -13.353715805
 H       -9.000517032    -4.603177611   -12.976670848
 H       -8.932398463    -5.247959226   -14.611775395
 H       -4.038130257    -0.407062699    -2.113177014
 H       -2.875042340     0.399238922    -3.160913485
 H       -4.343254311    -0.272398961    -3.854411431
 H       -4.730888645     3.545202081    -3.878648699
 H       -4.705783087     2.110531676    -4.920708137
 H       -3.240292119     2.642444618    -4.105860037
 H       -4.947232482     1.436491600     0.343561401
 H       -6.172645795     0.723420638     1.380253946
 H       -6.472488184     2.293605375     0.652680654
 H       -8.704060844    -0.240071103    -1.170818691
 H       -8.732253250     1.249714210    -0.213742578
 H       -8.251738626    -0.271565976     0.526810110
 H       -6.629184171    11.826432044     1.779624762
 H       -6.021216509    12.228503361     3.380255517
 H       -5.331435048    10.864203921     2.512324910
 H       -2.698636214    13.646343588     2.454946507
 H       -2.955419224    11.943367134     2.881337064
 H       -3.792589622    13.214772319     3.760369996
 H       -1.998071717    12.372690183    -2.155429247
 H       -1.714345808    14.092593653    -2.386765507
 H       -3.277248884    13.406941409    -2.814027606
 H       -3.821355691    15.454973351     0.374889524
 H       -4.389000103    15.239656187    -1.292765653
 H       -2.763046709    15.827859010    -0.976404505
 H       -0.493799673     0.895666467    -2.892266333
 H       -0.679898393    -0.643350649    -3.727073571
 H        0.874907813    -0.221461530    -3.025116662
 H       -0.615946760    -2.948593813    -0.788675626
 H        0.817077323    -2.516325820    -1.738202231
 H       -0.718915612    -2.814369291    -2.538049859
 H        0.839849501    -0.082981317     2.965559632
 H       -0.553694315    -0.855867569     3.705377054
 H       -0.734951387     0.730117676     2.966122982
 H       -2.477859111    -1.760334459     0.641733328
 H       -2.728735725    -0.318114022     1.649075101
 H       -2.384235326    -1.871926657     2.392145662

