187   

Si        0.000000000     0.000000000     0.000000000
 C        1.865342346     0.000000000     0.000000000
 C       -0.671205228     1.714392351     0.000000000
 C        0.128627631     2.797829658     0.377651280
 C       -0.385578589     4.094167924     0.375592053
 C       -1.710384294     4.336971332     0.003492294
 C       -2.511948752     3.249923038    -0.369774098
 C       -2.001029571     1.954816444    -0.370501769
 C       -2.289770662     5.676173230    -0.013212516
 C       -1.629312373     6.798272830     0.319519025
 C       -2.205249064     8.138854806     0.304021453
 C       -3.529989946     8.386160138    -0.067525522
 C       -4.039035184     9.684068435    -0.067837215
 C       -3.227889770    10.764935064     0.294309831
 C       -1.900117399    10.521243509     0.666602070
 C       -1.398177077     9.222274530     0.675137176
Si       -3.889139320    12.481441243     0.297410445
 C       -2.507430193    13.672697067     0.188273500
 C       -2.317623484    14.731195189     0.986619062
 C       -1.193790418    15.661182219     0.862459907
 C       -1.100193656    16.735979903     1.758611872
 C       -0.057043600    17.643944389     1.684034262
 C        0.967779568    17.478697842     0.726583464
 C        0.874968481    16.399984899    -0.172786072
 C       -0.202251291    15.524615980    -0.112237610
 N        2.018940704    18.409776340     0.664931899
 C        2.458755443    19.019850423     1.932988764
 C        3.114950423    18.121590389    -0.271956669
 C        2.886581715    18.020938114     3.022093367
 C        4.346534818    17.552678143     2.893930994
 N        5.343421317    18.438776186     3.521382779
 C        5.191578646    18.717895800     4.890298742
 C        4.633809775    17.743846399     5.747180622
 C        4.477957984    18.004503967     7.098342931
 C        4.913423181    19.213672623     7.660074625
 C        5.493254699    20.164067331     6.816251578
 C        5.639290133    19.927398311     5.455007494
 C        5.788267950    19.542602206     2.657676213
 C        4.722864200    19.434961430     9.094068345
 C        5.096624869    20.546799628     9.741866148
Si        4.856547594    20.819115460    11.533996791
 C        3.372687772    19.935602205    12.167774272
 C        2.258529066    19.767398558    11.337196216
 C        1.124690495    19.100994181    11.798519297
 C        1.071956986    18.599626125    13.102307741
 C        2.184525580    18.777049577    13.934955732
 C        3.320797833    19.438924288    13.475570890
 C       -0.093692296    17.896012519    13.627042969
 C       -1.220457089    17.660820855    12.933551841
 C       -2.387268371    16.957550650    13.455990680
 C       -2.442784427    16.451177516    14.757025950
 C       -3.579324743    15.784951961    15.215179600
 C       -4.684150467    15.603997639    14.377329102
 C       -4.630509333    16.110009188    13.071445124
 C       -3.497259148    16.780000370    12.619073476
Si       -6.191168731    14.726862192    14.967615208
 C       -5.863850680    13.786349537    16.544832384
 C       -7.575199232    15.994793057    15.284212037
 C       -6.767224179    13.535268693    13.599474731
 C        6.413698520    20.234968565    12.458051435
 C        4.632522438    22.684382446    11.832568436
 C       -5.022330587    12.729191647    -1.211082500
 C       -4.911596852    12.751492263     1.877789546
 C       -0.653504466    -0.908913114    -1.539788989
 C       -0.623634042    -0.915237543     1.547736082
 H        1.172287739     2.671125845     0.678655822
 H        0.259191135     4.920260339     0.670183165
 H       -3.546674387     3.416806481    -0.662952076
 H       -2.673722976     1.146940082    -0.671522839
 H       -3.337256581     5.718170513    -0.325224572
 H       -0.581626967     6.754982260     0.631894256
 H       -4.177850598     7.561915589    -0.359402753
 H       -5.083249696     9.815766702    -0.364053965
 H       -1.222876652    11.329544786     0.961706474
 H       -0.365134485     9.050318275     0.971532293
 H       -1.808817571    13.451216680    -0.636006683
 H       -2.998315345    14.984628318     1.809927509
 H       -1.867340828    16.869321128     2.522397641
 H       -0.033439943    18.485296173     2.371022689
 H        1.635814209    16.238326296    -0.928985179
 H       -0.257630898    14.706580789    -0.832703024
 H        3.866932946    18.926962522    -0.234213169
 H        2.713071142    18.111488092    -1.302887089
 H        3.619279076    17.160037270    -0.081147129
 H        5.871206931    19.197814302     1.613826490
 H        6.802693249    19.856574415     2.968763235
 H        5.123127424    20.421202719     2.686452650
 H        4.317128009    16.782921499     5.351330961
 H        4.021656271    17.246798650     7.737648541
 H        5.841705957    21.113212405     7.226318723
 H        6.093721647    20.695084649     4.838117267
 H        4.229778902    18.591365367     9.598542605
 H        5.599186178    21.372348354     9.215973781
 H        2.239875976    20.143157826    10.308361324
 H        0.274230243    18.976505666    11.130752322
 H        2.163868399    18.395027063    14.953688851
 H        4.157268993    19.547795984    14.171169111
 H        0.004469357    17.555499830    14.661916833
 H       -1.318062337    18.001627804    11.898523914
 H       -1.594478707    16.574794067    15.427784752
 H       -3.564044053    15.412082683    16.243040053
 H       -5.463477260    15.997893812    12.371701973
 H       -3.474988396    17.167073706    11.602123551
 H        3.280263850    19.736852764     1.715997724
 H        1.615678034    19.647486583     2.310487154
 H        2.726318581    18.476929681     4.020601090
 H        2.215609140    17.137707304     3.003638335
 H        4.458757402    16.542906166     3.357923761
 H        4.619845815    17.412274465     1.825411174
 H        2.263476281    -1.029676159    -0.039710075
 H        2.276143133     0.480173110     0.905273760
 H        2.259866293     0.542697900    -0.878339587
 H       -6.762780479    13.234222022    16.872589781
 H       -5.567685975    14.458413840    17.369158061
 H       -5.053951678    13.047550092    16.404009642
 H       -8.446182216    15.401450958    15.687317362
 C       -7.183804777    17.045223166    16.339760415
 C       -8.044282963    16.724441012    14.012705030
 H       -6.996587785    14.181744409    12.702866120
 C       -5.672164469    12.533909538    13.189841408
 C       -8.046695881    12.759436892    13.959663569
 H        6.242082681    20.477889760    13.546297666
 C        6.629656760    18.716028822    12.333787079
 C        7.694249245    20.959635246    12.006384223
 H        5.569356858    23.177616574    11.443058146
 C        3.432528262    23.258150493    11.057703733
 C        4.485219315    23.045224479    13.320964029
 H       -5.872228441    11.997727425    -1.085083140
 C       -5.619872626    14.144964209    -1.288578491
 C       -4.314122344    12.409100502    -2.539590450
 H       -5.205909698    13.840983641     1.873963252
 C       -6.200829060    11.911680546     1.921405686
 C       -4.100025140    12.476573286     3.157000543
 H       -1.778151858    -0.914403672    -1.442565042
 C       -0.297781135    -0.181700090    -2.849188553
 C       -0.182870500    -2.371245519    -1.634640127
 H       -0.146754476    -1.937134106     1.512943108
 C       -0.188430690    -0.229472783     2.855738960
 C       -2.151312925    -1.102494579     1.573264968
 H       -6.911043896    16.609119194    17.309339906
 H       -8.031146050    17.718474653    16.533570585
 H       -6.350310663    17.685294923    16.016206987
 H       -8.430782465    16.048067681    13.239927986
 H       -7.255669992    17.341033800    13.558673080
 H       -8.867068803    17.412304191    14.256646837
 H       -4.739526831    13.018583336    12.867101666
 H       -6.013930309    11.928668099    12.338140595
 H       -5.416974281    11.825765001    13.989329233
 H       -8.898008239    13.410371520    14.197104211
 H       -7.906633406    12.070556373    14.803238120
 H       -8.362210196    12.140218417    13.107300460
 H        5.777392656    18.122377526    12.692547668
 H        7.495630640    18.406681666    12.935594823
 H        6.841403965    18.398105984    11.302367676
 H        7.648591338    22.048261432    12.136389657
 H        7.951842254    20.756948633    10.957244544
 H        8.550783338    20.615503119    12.603963861
 H        3.492722801    23.090922819     9.973677824
 H        3.377583861    24.346751673    11.199459908
 H        2.469376985    22.855039988    11.402660102
 H        5.349037934    22.748239825    13.929247066
 H        3.586493921    22.608809653    13.780083421
 H        4.388913238    24.134530752    13.436434122
 H       -6.216729210    14.414721139    -0.407854644
 H       -6.294980773    14.222092994    -2.152751804
 H       -4.856523633    14.924693966    -1.424493519
 H       -3.895417024    11.393460147    -2.576284200
 H       -3.502279026    13.111843421    -2.772174272
 H       -5.027962468    12.476521375    -3.372801963
 H       -6.887843505    12.124641077     1.092632379
 H       -6.758762167    12.127958226     2.844116350
 H       -6.007234274    10.829718624     1.929340536
 H       -3.177728830    13.069015981     3.229083735
 H       -3.818748942    11.418704124     3.262980859
 H       -4.698022482    12.726093769     4.044657845
 H       -0.650710434     0.859189715    -2.877279798
 H       -0.769531425    -0.688974636    -3.702710945
 H        0.780905272    -0.170286837    -3.054383202
 H       -0.465436833    -2.976422748    -0.763568240
 H        0.903058977    -2.463959323    -1.768490493
 H       -0.642015418    -2.857195471    -2.507827395
 H        0.900074356    -0.130108319     2.955270501
 H       -0.522935445    -0.820649448     3.720305834
 H       -0.627218978     0.771148628     2.979576248
 H       -2.534735772    -1.671277247     0.716776214
 H       -2.697700240    -0.149640976     1.617548389
 H       -2.445798514    -1.665488581     2.470936499

