187   

Si        0.000000000     0.000000000     0.000000000
 C        1.865420863     0.000000000     0.000000000
 C       -0.679825625     1.710659377     0.000000000
 C        0.141625497     2.815970763     0.242733892
 C       -0.386592018     4.106938410     0.239811220
 C       -1.745938003     4.322248628    -0.000730327
 C       -2.568456136     3.213379569    -0.241578740
 C       -2.043854950     1.923993861    -0.241522197
 C       -2.342187280     5.653966854    -0.013443373
 C       -1.667402527     6.796402589     0.199660965
 C       -2.263427801     8.128305792     0.187004091
 C       -3.623583390     8.342877972    -0.053745689
 C       -4.151783688     9.633287418    -0.056706974
 C       -3.324778022    10.738227061     0.169396137
 C       -1.961021072    10.527916844     0.409870948
 C       -1.439672197     9.236816306     0.422944914
Si       -4.003309660    12.448152431     0.169294690
 C       -2.652075051    13.623515719    -0.194465200
 C       -2.356703553    14.724550030     0.508007193
 C       -1.260082525    15.635782453     0.173273102
 C       -1.044485183    16.761333824     0.984218428
 C       -0.021357077    17.652368419     0.709780465
 C        0.844668059    17.424033390    -0.380515897
 C        0.627588442    16.304148698    -1.197614721
 C       -0.427335246    15.437919287    -0.929558663
 N        1.873066922    18.367063940    -0.614971257
 C        2.765606477    18.623915909     0.540536767
 C        2.595598706    18.242816361    -1.891653990
 C        3.044379679    17.421491705     1.457678100
 C        3.733253452    16.254044030     0.727903807
 N        3.619543569    14.972139805     1.446158919
 C        4.203421284    14.893617059     2.722251595
 C        5.349507902    15.659120127     3.027747457
 C        5.928831985    15.585288145     4.284134419
 C        5.429709192    14.715674156     5.264137738
 C        4.314965759    13.933844218     4.949289672
 C        3.710469002    14.008992955     3.701674794
 C        2.303674609    14.332226792     1.276288588
 C        6.079977437    14.677985005     6.574523345
 C        5.691240684    13.888719464     7.585258426
Si        6.501998136    13.839986499     9.222903040
 C        7.248009471    15.461503557     9.669448490
 C        6.644209664    16.646332124     9.232169669
 C        7.193921398    17.884593898     9.559895734
 C        8.349067655    17.968667137    10.342671208
 C        8.946232307    16.781978314    10.787159764
 C        8.402256232    15.542911405    10.457370486
 C        8.958733771    19.242589053    10.709855244
 C        8.486286470    20.447739331    10.348918080
 C        9.093773490    21.723032129    10.714583272
 C       10.250890669    21.811888998    11.492638423
 C       10.797732417    23.053101020    11.818550552
 C       10.201342832    24.234055093    11.365896440
 C        9.041081423    24.147673049    10.584468127
 C        8.494306060    22.907836399    10.266116932
Si       10.909892566    25.880226565    11.786730619
 C       12.623451509    25.726046882    12.507862522
 C       10.955620905    26.930670172    10.199825647
 C        9.788581270    26.748076956    13.056560829
 C        5.191189437    13.391700154    10.526702919
 C        7.836046786    12.483495134     9.207767989
 C       -5.334868378    12.611003394    -1.179112689
 C       -4.795668056    12.804345656     1.860123300
 C       -0.658275990    -0.899536122    -1.542811241
 C       -0.607925853    -0.926850760     1.547429009
 H        1.212616421     2.710626297     0.437153082
 H        0.274987069     4.950352612     0.429327772
 H       -3.630151682     3.359042497    -0.431572701
 H       -2.733960110     1.098452801    -0.437544306
 H       -3.417264350     5.672035527    -0.214899419
 H       -0.592242593     6.778607694     0.401388861
 H       -4.285047533     7.498741553    -0.239269415
 H       -5.223451712     9.739073747    -0.245824037
 H       -1.269673074    11.356712893     0.595312502
 H       -0.378438439     9.090282119     0.615815283
 H       -2.072435218    13.349235887    -1.092359108
 H       -2.917526778    15.030470636     1.400586441
 H       -1.697240250    16.943808808     1.838575907
 H        0.115658525    18.537315215     1.327234268
 H        1.271273070    16.102716349    -2.048346057
 H       -0.588979950    14.583488867    -1.588922912
 H        3.211099575    19.147627539    -2.041639681
 H        1.867401133    18.215814356    -2.722421373
 H        3.249409260    17.360109222    -1.964442342
 H        1.913698784    14.519421943     0.259741194
 H        1.544387061    14.687748125     1.992597603
 H        2.417436368    13.238158458     1.381759521
 H        5.783657394    16.317621941     2.281659328
 H        6.799095097    16.204534561     4.506212041
 H        3.906708686    13.246887452     5.692127497
 H        2.847660012    13.382398045     3.499399468
 H        6.927356312    15.373671707     6.656678193
 H        4.846323218    13.192662168     7.473334179
 H        5.735070326    16.642974488     8.620973950
 H        6.710070512    18.791257551     9.201470183
 H        9.845575815    16.825259559    11.398328212
 H        8.911637616    14.651544796    10.833273626
 H        9.861285272    19.158767424    11.322197271
 H        7.583202908    20.530672874     9.737031706
 H       10.736832264    20.907365740    11.853829035
 H       11.703192180    23.058790411    12.431669950
 H        8.532052911    25.037020386    10.202311965
 H        7.591644595    22.860740361     9.660009271
 H        3.724751490    19.050104778     0.175139761
 H        2.276557121    19.430729604     1.139116043
 H        3.666399342    17.747668035     2.314346643
 H        2.098466232    17.065686938     1.914442526
 H        3.294290832    16.112833722    -0.286194574
 H        4.810734073    16.475682800     0.560753241
 H        2.263185384    -1.029939842    -0.036256778
 H        2.274633209     0.482723870     0.904822035
 H        2.261833520     0.539457424    -0.879379952
 H       13.057516785    26.719626649    12.719156937
 H       13.303075254    25.209716880    11.805773456
 H       12.619625527    25.156917574    13.453943853
 H        9.884117962    27.016470425     9.855091266
 C       11.494593221    28.355148588    10.421273825
 C       11.760293134    26.259284554     9.072189775
 H       10.313553820    27.712178423    13.317646566
 C        8.392320966    27.098439673    12.512015672
 C        9.621548908    25.929888898    14.350274295
 H        4.774320642    12.389830086    10.218292473
 C        5.771112257    13.252334986    11.945006589
 C        4.030984399    14.402935610    10.557623856
 H        8.259724899    12.448534543    10.252633763
 C        7.276734047    11.088308107     8.876315689
 C        8.983991426    12.804774994     8.234094099
 H       -6.152069722    11.885549949    -0.897190545
 C       -5.951583687    14.019026792    -1.248493131
 C       -4.814021619    12.221229642    -2.573844746
 H       -5.093193282    13.892758996     1.841688882
 C       -6.059874046    11.968970813     2.128800467
 C       -3.809252101    12.596714360     3.024432740
 H       -1.783065703    -0.897234600    -1.445217387
 C       -0.298385048    -0.169554375    -2.849538827
 C       -0.197419744    -2.364479612    -1.643282072
 H       -0.103289752    -1.935713809     1.514827125
 C       -0.192343999    -0.227243975     2.854674107
 C       -2.129497442    -1.156828091     1.574505169
 H       10.921733969    28.926200028    11.163328719
 H       11.438781616    28.927140634     9.483622761
 H       12.548909350    28.371537225    10.727738993
 H       11.397129885    25.252609081     8.820078441
 H       12.831404622    26.176856929     9.299531125
 H       11.684490861    26.852521465     8.149814299
 H        8.418734426    27.746230742    11.626759417
 H        7.818868943    27.645567136    13.274573039
 H        7.796739482    26.209036906    12.262410288
 H       10.572042515    25.707240163    14.852008574
 H        9.099862120    24.975659523    14.187856625
 H        9.015717858    26.491621281    15.075718960
 H        6.542569768    12.476073160    12.026007560
 H        4.976177215    12.969351981    12.650123110
 H        6.198555854    14.190504594    12.327076982
 H        3.527773408    14.519661229     9.588047373
 H        4.345045529    15.402595564    10.890966137
 H        3.260039892    14.071022112    11.267223595
 H        6.501351473    10.751439269     9.575856691
 H        8.080708181    10.339932168     8.926610726
 H        6.862730620    11.025003720     7.860003302
 H        9.478123035    13.763993674     8.441701481
 H        8.659679204    12.822186582     7.183185515
 H        9.764774247    12.034498533     8.302900023
 H       -6.424477381    14.334388420    -0.309497511
 H       -6.740226846    14.047081826    -2.014061973
 H       -5.222855124    14.792615673    -1.530211050
 H       -4.391001894    11.207479541    -2.613921827
 H       -4.051981146    12.914361744    -2.955685539
 H       -5.637808292    12.238252852    -3.301675631
 H       -6.858717152    12.139040554     1.395802823
 H       -6.483178855    12.233167816     3.108988262
 H       -5.860120201    10.888616567     2.164686364
 H       -2.888507607    13.188822638     2.933020726
 H       -3.512020349    11.545097068     3.147451716
 H       -4.276887424    12.896503346     3.972849200
 H       -0.647177671     0.872810740    -2.874412667
 H       -0.772119488    -0.671862067    -3.704941293
 H        0.780376432    -0.162141095    -3.054299397
 H       -0.484271659    -2.971255602    -0.774722127
 H        0.887911899    -2.464009409    -1.777082769
 H       -0.659514119    -2.843756199    -2.518628654
 H        0.892845711    -0.096060888     2.954198770
 H       -0.509655515    -0.826756833     3.719941810
 H       -0.659238834     0.760686960     2.977302051
 H       -2.502254803    -1.715867266     0.707036371
 H       -2.700928054    -0.220590071     1.644443314
 H       -2.403382588    -1.748513912     2.460281445

