187   

Si        0.000000000     0.000000000     0.000000000
 C        1.865350664     0.000000000     0.000000000
 C       -0.677957848     1.711164817     0.000000000
 C        0.142625975     2.813755889    -0.257341720
 C       -0.383483690     4.105522594    -0.254411852
 C       -1.738683158     4.323387429     0.004693404
 C       -2.560760809     3.217480952     0.260260378
 C       -2.038925902     1.927275095     0.256356780
 C       -2.333708951     5.654371675     0.018523247
 C       -1.666782132     6.798690745    -0.210235258
 C       -2.282675652     8.120943135    -0.191437863
 C       -1.492101552     9.248661206    -0.444102004
 C       -2.047597350    10.527522640    -0.434127516
 C       -3.413088721    10.704088284    -0.190523280
 C       -4.205572684     9.575067601     0.056711631
 C       -3.646407998     8.300346772     0.060312607
Si       -4.218821876    12.363002943    -0.161579909
 C       -5.537805522    12.322118814     1.111369647
 C       -5.434565689    11.537848548     2.192819778
 C       -6.428020194    11.434831239     3.259925912
 C       -6.158759628    10.559964378     4.324749224
 C       -7.053995197    10.412321222     5.368562651
 C       -8.290969498    11.090091245     5.343073721
 C       -8.562396640    11.965435527     4.279356623
 C       -7.622158302    12.156251855     3.270641959
 N       -9.167514632    10.899799613     6.441216286
 C       -9.488971070     9.484425403     6.732949013
 C      -10.353260457    11.770921190     6.486161215
 C      -10.487985436     8.773775897     5.790965116
 C      -10.106498523     8.749501095     4.303005611
 N       -9.306341411     7.576484532     3.868024985
 C       -8.768120831     7.733674450     2.539345235
 C       -8.413656134     8.965236083     1.976088634
 C       -7.901596546     9.026235619     0.687515788
 C       -7.729647165     7.862130570    -0.072330002
 C       -8.087169438     6.633230014     0.492960843
 C       -8.602979077     6.563667931     1.782114779
 C       -8.227975883     7.167615246     4.792704829
 C       -7.184351829     7.996001289    -1.425507814
 C       -6.964084531     6.978634932    -2.268008564
Si       -6.279734571     7.179144099    -3.957281917
 C       -6.746744188     8.807943167    -4.678412473
 C       -7.921821861     9.449716228    -4.271606914
 C       -8.281093674    10.682778244    -4.813536413
 C       -7.477161531    11.301561486    -5.774804146
 C       -6.307329923    10.652503254    -6.190352059
 C       -5.951276091     9.416198661    -5.657680446
 C       -7.813926058    12.590683152    -6.368574657
 C       -8.903647426    13.312975298    -6.057647440
 C       -9.242339978    14.602405314    -6.650240310
 C       -8.446043994    15.219455142    -7.618398329
 C       -8.807677683    16.453377710    -8.158679521
 C       -9.972482056    17.101236103    -7.735723984
 C      -10.772614988    16.484741243    -6.764136537
 C      -10.412360129    15.250184912    -6.231441882
Si      -10.463991654    18.730023671    -8.438643420
 C       -9.077804389    19.499787984    -9.421415699
 C      -11.968453308    18.501066329    -9.582023800
 C      -10.964713644    19.872380978    -7.000520698
 C       -4.385432359     7.005169756    -3.924935615
 C       -6.984458317     5.786547631    -5.043200736
 C       -2.962875301    13.731860388     0.219762321
 C       -5.012119727    12.694329923    -1.858003794
 C       -0.610579792    -0.921712743    -1.549707371
 C       -0.658679418    -0.902296354     1.541139209
 H        1.210815679     2.705581192    -0.464269749
 H        0.276229248     4.947374129    -0.456068869
 H       -3.619731750     3.366420549     0.464277014
 H       -2.727526420     1.103183371     0.462750892
 H       -3.405495036     5.671993255     0.244781584
 H       -0.596528042     6.789781971    -0.430603660
 H       -0.429786783     9.129847430    -0.644987434
 H       -1.380891607    11.370463658    -0.630125833
 H       -5.284574590     9.645056090     0.246540761
 H       -4.289008480     7.442385406     0.256946896
 H       -6.399904047    12.980479100     0.947503569
 H       -4.564038174    10.884043001     2.367822350
 H       -5.221622422    10.000256903     4.339698147
 H       -6.798922288     9.785101246     6.219977522
 H       -9.499254368    12.511877058     4.235633829
 H       -7.838911745    12.863128513     2.468838906
 H      -10.884924066    11.606025221     7.439059507
 H      -11.063704404    11.610808329     5.660034656
 H      -10.026966505    12.826542173     6.477805133
 H       -8.670833705     6.849721287     5.749133298
 H       -7.479987980     7.954680219     4.977403485
 H       -7.704287283     6.291317062     4.371402181
 H       -8.513191861     9.885667033     2.551638796
 H       -7.627943251     9.997869873     0.271350993
 H       -7.965367263     5.715375836    -0.080609524
 H       -8.890062643     5.606348342     2.212435001
 H       -6.963768320     9.041675783    -1.692733410
 H       -7.175415855     5.939079155    -1.976841374
 H       -8.595437521     9.011320102    -3.527093003
 H       -9.201522415    11.159732247    -4.481793419
 H       -5.670500898    11.114518876    -6.941983271
 H       -5.034331728     8.950986872    -6.031246987
 H       -7.099946040    12.952511484    -7.114069574
 H       -9.618459058    12.949999177    -5.313226525
 H       -7.532490543    14.737779815    -7.962222233
 H       -8.145568643    16.885687323    -8.914019812
 H      -11.694018213    16.944263107    -6.395230727
 H      -11.047934501    14.785919115    -5.479775155
 H       -8.537373815     8.910330006     6.772486514
 H       -9.898174424     9.458100315     7.770737011
 H      -10.641175763     7.735672827     6.149664166
 H      -11.478624645     9.261289385     5.884585357
 H      -11.045959649     8.686371756     3.697673146
 H       -9.634176275     9.716322315     4.028921606
 H        2.263126250    -1.029539514     0.047402578
 H        2.261764765     0.549087938     0.873438510
 H        2.274444446     0.472876677    -0.909979394
 H       -9.365758876    20.495693430    -9.802954659
 H       -8.798817934    18.878923921   -10.290739067
 H       -8.175439137    19.632112441    -8.797217461
 H      -12.174913439    19.520156818   -10.020341914
 C      -11.684215984    17.530523618   -10.743023459
 C      -13.237646049    18.032533872    -8.848203496
 H      -11.831267879    19.361923190    -6.487788390
 C       -9.839122530    20.042835314    -5.964163892
 C      -11.440527050    21.262661235    -7.457822104
 H       -4.072794621     6.836963904    -4.996270120
 C       -3.674190259     8.270569665    -3.418836353
 C       -3.912306881     5.798763591    -3.096040462
 H       -6.623151037     4.820534587    -4.585834010
 C       -8.523773374     5.770439333    -5.043147779
 C       -6.487591086     5.840391797    -6.498434208
 H       -2.194812703    13.689880413    -0.606221723
 C       -3.581034180    15.141666233     0.218983152
 C       -2.237603189    13.507033723     1.559070074
 H       -5.434932832    13.738885910    -1.807390297
 C       -4.003860753    12.640550375    -3.019224749
 C       -6.166222299    11.725668615    -2.165596048
 H       -0.108976803    -1.932045791    -1.520628229
 C       -2.132954854    -1.146936384    -1.575784458
 C       -0.194497726    -0.219124718    -2.855182475
 H       -1.783368648    -0.898933573     1.443719391
 C       -0.198632644    -2.367678707     1.638624973
 C       -0.297708948    -0.174621730     2.848862821
 H      -10.839655744    17.838339347   -11.372827961
 H      -12.557814533    17.472736339   -11.408116775
 H      -11.488557380    16.503297598   -10.402935692
 H      -13.555736777    18.712695093    -8.048050483
 H      -13.133548436    17.027197249    -8.416203369
 H      -14.079331329    17.975711203    -9.553909620
 H       -9.483526313    19.088815012    -5.549231835
 H      -10.199316865    20.633708074    -5.109953609
 H       -8.965877153    20.576137278    -6.362618347
 H      -12.294559093    21.225157910    -8.146383771
 H      -10.647630407    21.849731467    -7.939952335
 H      -11.772172308    21.850164243    -6.589239733
 H       -3.863693029     9.161351664    -4.030579304
 H       -2.585243917     8.119588957    -3.420428073
 H       -3.938576111     8.529513981    -2.381586663
 H       -4.333377599     4.841619820    -3.425822567
 H       -4.126167283     5.910934503    -2.023029415
 H       -2.819540009     5.694162217    -3.173150524
 H       -8.960615697     5.678401638    -4.039571232
 H       -8.892309102     4.910048588    -5.619341238
 H       -8.959726972     6.663533159    -5.513573380
 H       -5.397346996     5.754909553    -6.591026262
 H       -6.797906308     6.755088777    -7.023470750
 H       -6.909233715     5.001680249    -7.071092360
 H       -4.047916166    15.412563065    -0.736794756
 H       -2.800394383    15.894320333     0.401532713
 H       -4.330749290    15.280495785     1.010211028
 H       -1.719518980    12.539954732     1.619371143
 H       -2.911485167    13.574157266     2.425544726
 H       -1.468429177    14.277987629     1.706687767
 H       -3.186239061    13.365078169    -2.924608900
 H       -4.513173107    12.872766244    -3.966735301
 H       -3.557885891    11.644170436    -3.151651484
 H       -6.962838095    11.734812522    -1.411359324
 H       -5.823443898    10.687618599    -2.293278241
 H       -6.643186763    11.997683288    -3.120999768
 H       -2.504642340    -1.715504664    -0.713998544
 H       -2.410876253    -1.727030989    -2.467909573
 H       -2.702069281    -0.208427081    -1.632755705
 H        0.891038102    -0.091745248    -2.955706124
 H       -0.657961499     0.770933216    -2.973467681
 H       -0.515166635    -0.814357173    -3.722120145
 H       -0.482845738    -2.971675774     0.767294695
 H       -0.663646210    -2.849553403     2.511017268
 H        0.886286137    -2.467691490     1.775510990
 H       -0.646558185     0.867708396     2.875734534
 H        0.781249088    -0.167510543     3.052709342
 H       -0.770800052    -0.678539127     3.703703520

