187   

Si        0.000000000     0.000000000     0.000000000
 C        1.865289829     0.000000000     0.000000000
 C       -0.673665796     1.713407405     0.000000000
 C        0.142052107     2.808401164     0.302508030
 C       -0.378058504     4.102456079     0.299759535
 C       -1.722780049     4.331268494    -0.002268636
 C       -2.539993312     3.233033292    -0.301737526
 C       -2.024098697     1.940144009    -0.298771584
 C       -2.309214883     5.666664651    -0.017069853
 C       -1.639118147     6.800154748     0.251475397
 C       -2.231563942     8.132812895     0.234968253
 C       -3.577600425     8.350387866    -0.068439716
 C       -4.108031463     9.640135092    -0.074079962
 C       -3.309523825    10.737403516     0.259665904
 C       -1.959473935    10.522531820     0.570747280
 C       -1.426085337     9.236921738     0.546791302
Si       -3.970649105    12.453039740     0.264206675
 C       -3.541100841    13.307065589     1.822998920
 C       -3.384744024    12.671194974     2.991789427
 C       -3.041032482    13.334688531     4.251711019
 C       -2.906947934    12.548385384     5.407106453
 C       -2.583244304    13.124394967     6.624723787
 C       -2.403870547    14.514958823     6.713165826
 C       -2.533134286    15.306838669     5.567757833
 C       -2.838830164    14.712800440     4.346306891
 N       -2.070777732    15.023976287     8.011902455
 C       -3.278455129    15.175689225     8.855295590
 C       -1.220949908    16.227549058     7.997548204
 C       -4.201109262    16.343092256     8.450503369
 C       -5.652679106    16.123329236     8.918378774
 N       -6.576465942    15.634482742     7.873782413
 C       -6.320894483    14.317981318     7.409550467
 C       -6.299249791    13.277330989     8.359402037
 C       -6.054354919    11.973710472     7.959400236
 C       -5.861811516    11.656443841     6.606625934
 C       -5.919616124    12.687256172     5.665654086
 C       -6.161990201    14.000770895     6.052282580
 C       -6.837127186    16.643962522     6.833041342
 C       -5.606334368    10.262039970     6.239886233
 C       -5.407402124     9.836878180     4.985080073
Si       -5.087795493     8.097548356     4.518806460
 C       -5.875539631     6.879246895     5.647405036
 C       -7.007563338     7.223297033     6.396226768
 C       -7.599106824     6.295042242     7.249310235
 C       -7.084897467     4.997013619     7.363735659
 C       -5.961976447     4.652232397     6.606003829
 C       -5.365578356     5.580271814     5.753887089
 C       -7.738713621     4.059478042     8.270660643
 C       -7.344914917     2.790862714     8.474523853
 C       -7.998910315     1.853495384     9.381523466
 C       -9.121376031     2.196281189    10.139707308
 C       -9.715261090     1.268042663    10.994858607
 C       -9.201911262    -0.027950312    11.105051924
 C       -8.076937166    -0.374841737    10.344512503
 C       -7.483353111     0.555277794     9.495840477
Si       -9.973239435    -1.265282257    12.228560676
 C      -11.635248532    -0.687715603    12.848431023
 C      -10.159145377    -2.901120226    11.273062364
 C       -8.835140971    -1.563674543    13.725113121
 C       -5.702276522     7.823744778     2.742855199
 C       -3.200769347     7.831694187     4.548896507
 C       -3.265155632    13.420314018    -1.209311368
 C       -5.871771943    12.430436676     0.136581466
 C       -0.657981225    -0.903407113    -1.540604680
 C       -0.617155160    -0.918158677     1.548728625
 H        1.202009110     2.692105965     0.544964473
 H        0.279059241     4.937450817     0.536418798
 H       -3.590877614     3.389083312    -0.538922458
 H       -2.709463118     1.122541323    -0.539653524
 H       -3.373258987     5.695615768    -0.271156617
 H       -0.575619800     6.773167885     0.504942328
 H       -4.226324633     7.510445110    -0.311851497
 H       -5.163353218     9.746654428    -0.340898035
 H       -1.289840083    11.344747241     0.844595564
 H       -0.373585965     9.089047855     0.780730743
 H       -3.437036627    14.398696837     1.742831230
 H       -3.486392844    11.579614058     3.092307555
 H       -3.066366530    11.468052279     5.354257554
 H       -2.470664139    12.512007953     7.518701925
 H       -2.392010273    16.381610173     5.621581220
 H       -2.928877850    15.340664088     3.460454722
 H       -0.867300994    16.414568547     9.026370493
 H       -1.711903560    17.139277236     7.627821928
 H       -0.331343925    16.031253690     7.373667131
 H       -7.151445737    17.585336140     7.315070246
 H       -7.680957811    16.304291112     6.205638207
 H       -5.975626416    16.858463256     6.181049829
 H       -6.478893267    13.500240737     9.407941500
 H       -6.022920497    11.182770106     8.709250561
 H       -5.770792024    12.470393767     4.605307888
 H       -6.186868902    14.775294290     5.291886922
 H       -5.592458736     9.585154503     7.105426439
 H       -5.416141177    10.539572185     4.135765668
 H       -7.460665467     8.218679693     6.338150375
 H       -8.474371411     6.583210738     7.828540506
 H       -5.543945994     3.649630763     6.674284097
 H       -4.491694954     5.250456553     5.183747989
 H       -8.606827517     4.464308181     8.799248284
 H       -6.477300563     2.385724124     7.945636573
 H       -9.543268333     3.197206695    10.069092219
 H      -10.590446261     1.595242448    11.562994847
 H       -7.633064942    -1.373423043    10.388418110
 H       -6.609907682     0.267470564     8.913855301
 H       -3.840579451    14.212189152     8.813767448
 H       -2.937116544    15.297812854     9.906036718
 H       -3.811715147    17.289579672     8.863878991
 H       -4.178054392    16.466942933     7.349675870
 H       -5.685810398    15.413023327     9.774371878
 H       -6.073403022    17.078534669     9.308246643
 H        2.263276421    -1.029756880    -0.041992299
 H        2.275498423     0.477751895     0.906884123
 H        2.260761739     0.544241649    -0.876930955
 H      -12.110789065    -1.454681572    13.485489928
 H      -12.322434739    -0.482774456    12.007534885
 H      -11.549910832     0.235862626    13.447447050
 H       -9.114061942    -3.203334801    10.971753466
 C      -10.754836842    -4.041839426    12.117099691
 C      -10.990872325    -2.741070500     9.987525662
 H       -9.396806476    -2.275455590    14.396774203
 C       -7.490093657    -2.216333988    13.359345843
 C       -8.557432365    -0.274945579    14.520722120
 H       -5.127825906     8.555615334     2.099856462
 C       -5.416210840     6.406477213     2.216708996
 C       -7.203386260     8.124127535     2.587749240
 H       -3.023991062     6.824765158     4.071856188
 C       -2.427182435     8.884615855     3.741103674
 C       -2.634452425     7.793365236     5.979696096
 H       -3.729147683    14.447797189    -1.155941715
 C       -1.736800913    13.587085405    -1.138922003
 C       -3.637377276    12.798634051    -2.566848668
 H       -6.115216942    11.829647805    -0.786178579
 C       -6.536989447    11.751152986     1.347577831
 C       -6.482696074    13.832575137    -0.037465016
 H       -1.782661749    -0.903367687    -1.442761116
 C       -0.299448828    -0.175147360    -2.848664873
 C       -0.194295615    -2.367671218    -1.638376626
 H       -0.128647809    -1.934818470     1.516104776
 C       -0.190327628    -0.224801831     2.855588962
 C       -2.142379639    -1.123766237     1.575564755
 H      -10.172539561    -4.264182635    13.020621365
 H      -10.776635844    -4.971175701    11.529474819
 H      -11.791089493    -3.850130123    12.425620319
 H      -10.590912322    -1.977989551     9.304375690
 H      -12.041707586    -2.490605074    10.184196165
 H      -10.997999862    -3.684431888     9.423199994
 H       -7.598107494    -3.187035510    12.859292059
 H       -6.904701725    -2.405161283    14.271158289
 H       -6.864214096    -1.575434053    12.722463304
 H       -9.467382281     0.212721375    14.893354071
 H       -7.993646480     0.470843331    13.941827342
 H       -7.946655470    -0.502954204    15.406025683
 H       -4.343175625     6.173505903     2.164834726
 H       -5.804698686     6.297821767     1.194351252
 H       -5.900795785     5.618875306     2.810650933
 H       -7.482207290     9.138600331     2.904307682
 H       -7.838050984     7.420012238     3.144268469
 H       -7.500087778     8.034681540     1.533487196
 H       -2.793058472     9.005076262     2.710843555
 H       -1.371646375     8.590658151     3.652615065
 H       -2.431165550     9.875692716     4.215302988
 H       -3.083894301     7.011477356     6.606606206
 H       -2.748227788     8.748999894     6.511282365
 H       -1.556324100     7.581781914     5.950983129
 H       -1.389540328    14.054092944    -0.207296399
 H       -1.391650707    14.236962763    -1.956019885
 H       -1.198464734    12.636027306    -1.257989933
 H       -4.720122788    12.729461172    -2.733208676
 H       -3.213632423    11.794101866    -2.709046709
 H       -3.240164854    13.416251699    -3.385586066
 H       -6.188790068    10.723201953     1.523450759
 H       -7.623111481    11.684607233     1.193041233
 H       -6.393274960    12.313928567     2.281875443
 H       -6.128446389    14.355644344    -0.934496034
 H       -6.304157823    14.487915932     0.826525803
 H       -7.574686428    13.755597273    -0.142966799
 H       -0.650326144     0.866413386    -2.875741898
 H       -0.771874903    -0.680251271    -3.703205023
 H        0.779361495    -0.165912926    -3.053289036
 H       -0.478474319    -2.973111607    -0.768009977
 H        0.890987407    -2.465277289    -1.774010385
 H       -0.657085891    -2.849850530    -2.511840170
 H        0.896836305    -0.110919550     2.954772953
 H       -0.516780553    -0.819211210     3.721060795
 H       -0.641782404     0.770184665     2.978264663
 H       -2.521306338    -1.689658771     0.715138781
 H       -2.699883918    -0.178081671     1.630076265
 H       -2.427729097    -1.698249367     2.469021026

