187   

Si        0.000000000     0.000000000     0.000000000
 C        1.867864104     0.000000000     0.000000000
 C       -0.632539250     1.730090209     0.000000000
 C        0.158478685     2.776906179    -0.486846679
 C       -0.318999703     4.087207313    -0.487502673
 C       -1.606534481     4.377284119    -0.028602322
 C       -2.401570793     3.327323913     0.449170369
 C       -1.920366841     2.021098612     0.467122652
 C       -2.150753647     5.730372704    -0.009412521
 C       -1.492819117     6.827391202    -0.420789789
 C       -2.041651718     8.179643858    -0.399689303
 C       -3.329574016     8.464797611     0.060060848
 C       -3.813363497     9.772765974     0.062187557
 C       -2.997307809    10.835503455    -0.337350701
 C       -1.700650790    10.552716135    -0.789030259
 C       -1.237621904     9.240666378    -0.837804394
Si       -3.594161724    12.576261403    -0.350122790
 C       -2.693146738    13.637338060     0.839927190
 C       -2.146022719    13.238776068     1.996749567
 C       -1.433183692    14.135669954     2.914352227
 C       -0.894466772    13.625470005     4.102427415
 C       -0.212591655    14.448134581     4.994856103
 C       -0.025144158    15.803029791     4.694700808
 C       -0.558004625    16.320710680     3.500201616
 C       -1.259448115    15.496771341     2.633334685
 N        0.655368957    16.742911097     5.527905949
 C        0.660985507    16.477392566     6.975470443
 C        1.967473263    17.141857991     4.986174455
 C        1.846469050    15.655880967     7.512762052
 C        1.598624708    15.244590635     8.979608987
 N        2.138098032    13.908879569     9.334023570
 C        1.660152719    12.901444929     8.443333922
 C        0.274857844    12.649708402     8.448392564
 C       -0.256571547    11.685259715     7.608991848
 C        0.574158614    10.920117546     6.776247720
 C        1.949222416    11.159954425     6.792287686
 C        2.494349507    12.138850205     7.616807265
 C        3.596680177    13.934322629     9.542240716
 C       -0.039136559     9.914222845     5.908637194
 C        0.650848473     9.126963829     5.073767488
Si       -0.094588138     7.866533300     3.983543027
 C        0.646412635     6.192263645     4.037479712
 C        1.378986094     5.719674006     5.128850924
 C        1.919656284     4.432669587     5.110822802
 C        1.731956357     3.594204010     4.009231170
 C        0.990992722     4.069216162     2.918830402
 C        0.452223612     5.350784028     2.931881132
 C        2.273165857     2.242048575     3.936133851
 C        3.001106657     1.645201850     4.894756366
 C        3.533709302     0.289668108     4.801297862
 C        3.329472192    -0.523716251     3.683870707
 C        3.854927994    -1.814216260     3.632188492
 C        4.589824618    -2.325007232     4.706275777
 C        4.794448079    -1.513356924     5.830481511
 C        4.274643182    -0.222581210     5.874801899
Si        5.289224847    -4.026174123     4.652131761
 C        4.575752435    -5.013497562     3.238579530
 C        7.178112672    -3.930730014     4.438814360
 C        4.906673085    -4.880176072     6.309589630
 C       -1.960853180     7.711597660     4.320096884
 C        0.168569319     8.615521098     2.250633363
 C       -3.417042351    13.321249587    -2.092046063
 C       -5.441937048    12.632528437     0.123540377
 C       -0.670549712    -0.857013808    -1.558853310
 C       -0.583561137    -0.966634525     1.535836857
 H        1.169921507     2.610351170    -0.868567979
 H        0.322122163     4.884987203    -0.858556098
 H       -3.405594923     3.531864017     0.816006260
 H       -2.583143040     1.244291782     0.859737706
 H       -3.174578271     5.804134240     0.370067630
 H       -0.471605325     6.753319360    -0.806925099
 H       -3.980464904     7.661171055     0.400307785
 H       -4.841933824     9.923938334     0.401210367
 H       -1.013669045    11.342522997    -1.110588296
 H       -0.233269901     9.040820989    -1.207080846
 H       -2.647532779    14.694069226     0.529069192
 H       -2.177444646    12.196581941     2.342821069
 H       -1.005554706    12.565391907     4.339755181
 H        0.185988043    14.023323209     5.914999370
 H       -0.430658241    17.377152986     3.272562237
 H       -1.675404776    15.921749582     1.719980460
 H        2.373135035    17.968283994     5.592916142
 H        1.838340760    17.518542382     3.956555625
 H        2.703513497    16.322677027     4.959928239
 H        3.819470014    14.620178747    10.378236107
 H        4.176568326    14.256087772     8.663958448
 H        3.939910274    12.931105898     9.850244374
 H       -0.372722612    13.213958752     9.116078498
 H       -1.332794621    11.511114123     7.607845317
 H        2.612862102    10.579870207     6.149780287
 H        3.566580177    12.308968130     7.599413761
 H       -1.130538121     9.860614355     6.016275658
 H        1.746302001     9.206745309     4.983092159
 H        1.553956362     6.333538041     6.016510677
 H        2.490687105     4.085307780     5.969243150
 H        0.825053224     3.429839804     2.050419464
 H       -0.122304092     5.661261862     2.050600881
 H        2.047741229     1.716946708     3.001551428
 H        3.232941971     2.168031266     5.826265746
 H        2.760495829    -0.152241806     2.832533441
 H        3.662923935    -2.400116624     2.729174581
 H        5.359875147    -1.860017601     6.699941713
 H        4.445908103     0.392896243     6.755845961
 H        0.649666330    17.478497772     7.470394386
 H       -0.303024302    15.987885935     7.245414877
 H        1.996723702    14.762509376     6.875009974
 H        2.784684008    16.230841089     7.432671272
 H        2.032710005    15.996212634     9.672142633
 H        0.506933964    15.222676550     9.202396728
 H        2.269798803    -1.017559889     0.151218843
 H        2.276156699     0.647246004     0.796999497
 H        2.264726539     0.368888224    -0.962750246
 H        4.965623661    -6.046999889     3.239591512
 H        4.823559065    -4.565923304     2.260329120
 H        3.474907724    -5.074443682     3.314203586
 H        7.529433544    -4.999630195     4.353755205
 C        7.589014474    -3.189378960     3.153257918
 C        7.903134839    -3.285163986     5.633218722
 H        5.411517350    -4.255509104     7.102986834
 C        3.399582620    -4.909478989     6.622359743
 C        5.467605369    -6.309942709     6.407826839
 H       -2.375693710     8.760123523     4.273989033
 C       -2.700674503     6.864148563     3.271830088
 C       -2.256018496     7.132771993     5.716204255
 H       -0.516508165     8.048237551     1.557656221
 C       -0.216480843    10.103486977     2.201439370
 C        1.609421020     8.449768091     1.738437241
 H       -3.928010324    14.327233640    -2.040172774
 C       -1.959656933    13.562554906    -2.522989816
 C       -4.123248627    12.481676388    -3.171040595
 H       -5.941653481    11.826896687    -0.487611604
 C       -5.675642331    12.327554361     1.614821911
 C       -6.124389643    13.970570327    -0.212560397
 H       -1.792897964    -0.878721152    -1.437067677
 C       -0.355518527    -0.080682583    -2.850332767
 C       -0.179563113    -2.307248898    -1.715991968
 H        0.101347927    -1.863037190     1.596960730
 C       -0.434406896    -0.167765554     2.842344803
 C       -2.027290123    -1.494660238     1.446200838
 H        7.182714096    -3.641881535     2.239696005
 H        8.682839052    -3.204200360     3.042971757
 H        7.295046037    -2.129820759     3.158985623
 H        7.729790480    -3.807599053     6.582496578
 H        7.634827427    -2.228667795     5.774714032
 H        8.990192723    -3.304394611     5.467188492
 H        2.938003009    -3.911492476     6.625992452
 H        3.230404323    -5.329427502     7.624132679
 H        2.828103362    -5.535270912     5.924344916
 H        6.555068660    -6.360847504     6.267441502
 H        5.005071832    -7.001750117     5.691570707
 H        5.267235108    -6.723687915     7.406933216
 H       -2.603126369     7.261786474     2.251990328
 H       -3.776285050     6.842250330     3.494765995
 H       -2.368509819     5.816016626     3.255368290
 H       -1.792813597     7.696619818     6.536740354
 H       -1.935649966     6.085559228     5.817287651
 H       -3.338055366     7.141817342     5.907045650
 H       -1.281018007    10.275435083     2.412022545
 H       -0.039066682    10.506715896     1.193108989
 H        0.372347089    10.731336175     2.884934532
 H        1.945583072     7.403759573     1.713585836
 H        2.341229665     9.019204861     2.326852278
 H        1.685582759     8.823139344     0.707459800
 H       -1.370101624    14.125722408    -1.786962225
 H       -1.936695332    14.151704843    -3.451216279
 H       -1.420845624    12.630731925    -2.742570999
 H       -5.198058707    12.351560061    -2.989061831
 H       -3.684766640    11.480496110    -3.290665292
 H       -4.034675590    12.973775211    -4.150332267
 H       -5.239454852    11.377176456     1.949897535
 H       -6.752921719    12.262651268     1.821881244
 H       -5.281365874    13.116062068     2.273461457
 H       -6.110427796    14.209424558    -1.283638336
 H       -5.690366271    14.822210990     0.328920909
 H       -7.185053385    13.933337343     0.076265972
 H       -0.725424482     0.954433823    -2.835138317
 H       -0.841908708    -0.565896399    -3.708856825
 H        0.716985368    -0.047725205    -3.081976230
 H       -0.420727029    -2.946078612    -0.856407679
 H        0.902894658    -2.375175521    -1.888595415
 H       -0.659536350    -2.773240952    -2.588866693
 H        0.599483783     0.137510553     3.053731972
 H       -0.744507541    -0.782256388     3.700192672
 H       -1.057378735     0.737042902     2.872165702
 H       -2.202675554    -2.144032118     0.579404241
 H       -2.780589185    -0.696853628     1.422706623
 H       -2.257248593    -2.103482984     2.333403460

