187   

Si        0.000000000     0.000000000     0.000000000
 C        1.865152058     0.000000000     0.000000000
 C       -0.663728341     1.717895617     0.000000000
 C        0.080282666     2.766726978     0.551282105
 C       -0.420425773     4.068229652     0.552309509
 C       -1.677344515     4.350272449     0.010644153
 C       -2.424477350     3.297794787    -0.534419663
 C       -1.926862490     1.997347892    -0.537332519
 C       -2.241980374     5.695496054    -0.010521899
 C       -1.633152925     6.790223656     0.476349894
 C       -2.201753562     8.133885206     0.453028233
 C       -1.460018973     9.190990550     0.995754054
 C       -1.963336306    10.490153241     0.995123802
 C       -3.216906453    10.764027308     0.437412410
 C       -3.959471375     9.709248572    -0.107785001
 C       -3.458158175     8.409240468    -0.094900298
Si       -3.924117766    12.462324631     0.412650805
 C       -4.848752132    12.748092415    -1.140992319
 C       -4.535002536    12.152810531    -2.299435284
 C       -5.252943519    12.359182037    -3.558259891
 C       -4.813692110    11.668052283    -4.698840458
 C       -5.454160080    11.824331346    -5.915940780
 C       -6.588399189    12.656048073    -6.017439577
 C       -7.028888317    13.350208328    -4.881481353
 C       -6.350182271    13.214593605    -3.674155638
 N       -7.193480573    12.769192479    -7.294981281
 C       -7.720908443    11.504043028    -7.846374416
 C       -8.090276274    13.918530367    -7.486821072
 C       -9.166127704    11.137227108    -7.465797593
 C       -9.390757410    10.866775229    -5.966083666
 N       -8.923151138     9.562101592    -5.475810297
 C       -9.351173724     8.407315236    -6.136141790
 C      -10.627641304     8.373635059    -6.742207403
 C      -11.061426645     7.234253820    -7.399056130
 C      -10.276741392     6.072803124    -7.437463827
 C       -9.026984096     6.098179413    -6.811543285
 C       -8.565399825     7.237020601    -6.166518339
 C       -7.572403646     9.565506153    -4.901690494
 C      -10.783458653     4.896821651    -8.145763656
 C      -10.120030002     3.737400773    -8.245779117
Si      -10.700523020     2.239372488    -9.114615056
 C       -9.386540431     1.625099031   -10.246269846
 C       -8.364963980     2.481130949   -10.675641567
 C       -7.370021763     2.016578147   -11.532332540
 C       -7.376367892     0.691621660   -11.987303701
 C       -8.401126886    -0.158414931   -11.561199462
 C       -9.396925782     0.301995710   -10.701062838
 C       -6.312369934     0.251539101   -12.883790364
 C       -6.201144344    -0.989259817   -13.387673230
 C       -5.137726914    -1.430381083   -14.284109774
 C       -4.112088311    -0.583351138   -14.711862413
 C       -3.114946474    -1.047383289   -15.569733289
 C       -3.117919408    -2.373798588   -16.012375596
 C       -4.144966418    -3.225755148   -15.583926602
 C       -5.142670007    -2.757868841   -14.733373736
Si       -1.809522560    -3.002306371   -17.144609991
 C       -0.373896422    -1.816710565   -17.259281764
 C       -1.218572994    -4.690669515   -16.493363304
 C       -2.540266843    -3.247752317   -18.884931683
 C      -11.093854729     0.902091300    -7.818456856
 C      -12.273688064     2.592016246   -10.123503177
 C       -5.122045098    12.657264543     1.876208053
 C       -2.548242531    13.765384726     0.567514061
 C       -0.648961299    -0.921368748    -1.534473307
 C       -0.634511121    -0.902930716     1.550339355
 H        1.069581814     2.607992757     0.989562516
 H        0.180489897     4.867137319     0.982892400
 H       -3.406476255     3.495180476    -0.960341731
 H       -2.556609189     1.217572594    -0.974727978
 H       -3.234672872     5.766884109    -0.465084870
 H       -0.641273493     6.719969621     0.931940635
 H       -0.479741914     8.997997063     1.427239584
 H       -1.342666559    11.272543929     1.440004750
 H       -4.946816093     9.865053005    -0.556563058
 H       -4.056382340     7.605736358    -0.520864587
 H       -5.680655559    13.463210194    -1.067236378
 H       -3.701138885    11.440874146    -2.392751202
 H       -3.945562262    11.010449296    -4.630055817
 H       -5.077971305    11.319759309    -6.803993231
 H       -7.893566981    14.004705285    -4.933446931
 H       -6.697651006    13.775905042    -2.806064795
 H       -8.360984404    13.984385622    -8.555290201
 H       -7.546130274    14.846011653    -7.232044782
 H       -9.017131019    13.880329374    -6.893855563
 H       -7.389932132    10.512601105    -4.359757522
 H       -6.774686345     9.447172590    -5.653483063
 H       -7.489041272     8.753391280    -4.155936388
 H      -11.277191467     9.241916719    -6.694638967
 H      -12.040785154     7.238350340    -7.878670030
 H       -8.395514940     5.207929869    -6.826298891
 H       -7.586379501     7.214572814    -5.699340518
 H      -11.771409139     5.056853913    -8.596941874
 H       -9.132547609     3.607101456    -7.772029952
 H       -8.312644279     3.526963790   -10.355276007
 H       -6.580945329     2.694439906   -11.852357391
 H       -8.429209869    -1.192195214   -11.900105940
 H      -10.171739527    -0.408934679   -10.401415256
 H       -5.577305388     1.022192597   -13.134125521
 H       -6.936601489    -1.759280295   -13.137186875
 H       -4.083944979     0.452138514   -14.377490007
 H       -2.340245234    -0.337149262   -15.871761075
 H       -4.198328125    -4.272364648   -15.896760753
 H       -5.933259607    -3.433873518   -14.413416718
 H       -7.650719662    11.595012592    -8.957455076
 H       -7.041462150    10.669280454    -7.562829690
 H       -9.856968291    11.936677358    -7.793190193
 H       -9.461630979    10.241284810    -8.052550519
 H       -8.912756834    11.669209802    -5.358345845
 H      -10.483142798    10.932959037    -5.740594413
 H        2.263572907    -1.029207068    -0.047450921
 H        2.277201726     0.474560487     0.907453679
 H        2.258525059     0.549577693    -0.874762774
 H        0.425989568    -2.221079399   -17.904940991
 H        0.066640055    -1.630456206   -16.262916022
 H       -0.680264428    -0.843027224   -17.680117209
 H       -2.128397791    -5.358938396   -16.497400551
 C       -0.146503176    -5.349642306   -17.379388638
 C       -0.697022588    -4.614706352   -15.046979289
 H       -1.676840228    -3.573761647   -19.534145201
 C       -3.624204444    -4.338452333   -18.951778928
 C       -3.114623424    -1.945830144   -19.472987158
 H      -11.471811052     0.010031806    -8.396546970
 C       -9.848077405     0.462611450    -7.028569806
 C      -12.191902856     1.328750869    -6.828596693
 H      -13.005976184     3.057914326    -9.402216720
 C      -12.024857624     3.590749897   -11.268715907
 C      -12.922998132     1.324377026   -10.707059343
 H       -5.518419601    13.711924226     1.816772024
 C       -6.317683405    11.692045686     1.785750647
 C       -4.438014111    12.479194767     3.242772491
 H       -2.022267205    13.548358467     1.542070647
 C       -1.515251814    13.663594797    -0.569049211
 C       -3.081790704    15.207852011     0.627567860
 H       -1.774481394    -0.916755349    -1.446571538
 C       -0.274770890    -0.215134168    -2.850112757
 C       -0.191035289    -2.389141745    -1.607138004
 H       -0.174671829    -1.932564290     1.517402962
 C       -0.187424611    -0.222488133     2.857128567
 C       -2.165265520    -1.062865552     1.574759313
 H       -0.472729603    -5.501922635   -18.416327190
 H        0.103883005    -6.346049125   -16.986979958
 H        0.794827551    -4.784764815   -17.404302334
 H       -1.433316077    -4.203277297   -14.341605306
 H        0.220479333    -4.018926612   -14.952039983
 H       -0.451257296    -5.621833447   -14.681231885
 H       -3.270514599    -5.325291655   -18.627479920
 H       -3.968058192    -4.462344931   -19.989090766
 H       -4.517643520    -4.088739458   -18.362230085
 H       -2.379348733    -1.133338114   -19.535945378
 H       -3.980084188    -1.568381366   -18.909376775
 H       -3.468331137    -2.119708113   -20.499331055
 H       -9.030781547     0.102859964    -7.669386009
 H      -10.101698702    -0.370859793    -6.358331816
 H       -9.443432283     1.259676539    -6.389688183
 H      -13.144237745     1.576217275    -7.314852038
 H      -11.899785260     2.190918546    -6.211570088
 H      -12.407704963     0.508945860    -6.128830641
 H      -11.595322011     4.545079422   -10.934532255
 H      -12.972220964     3.835954366   -11.768646466
 H      -11.361064662     3.187732276   -12.047309889
 H      -13.224691540     0.597622294    -9.942196781
 H      -12.276397006     0.805579485   -11.428730829
 H      -13.838898761     1.589796952   -11.254779082
 H       -6.892381002    11.793412448     0.855181311
 H       -7.022837987    11.887801363     2.606155067
 H       -6.022706428    10.636936835     1.881234620
 H       -3.626905185    13.196635590     3.421561991
 H       -4.029112329    11.468925512     3.388643166
 H       -5.167289381    12.632978607     4.051448366
 H       -1.044888971    12.673663790    -0.646940837
 H       -0.698644182    14.380243591    -0.402419697
 H       -1.940027758    13.904093817    -1.554580701
 H       -3.769813983    15.384426471     1.464143938
 H       -3.591044279    15.514104378    -0.296815845
 H       -2.247426691    15.911145005     0.764554599
 H       -0.613317996     0.829762226    -2.895062466
 H       -0.746243458    -0.727693574    -3.700850795
 H        0.805581719    -0.220374536    -3.047150527
 H       -0.488457176    -2.981422393    -0.732168943
 H        0.895203321    -2.493902470    -1.728690971
 H       -0.645899980    -2.881030900    -2.479363949
 H        0.902645793    -0.143151653     2.956781711
 H       -0.532929190    -0.806081614     3.722587557
 H       -0.608651019     0.785847985     2.979099551
 H       -2.557342407    -1.631386032     0.721898862
 H       -2.695149431    -0.100218045     1.609338949
 H       -2.471606956    -1.613268515     2.476185511

