187   

Si        0.000000000     0.000000000     0.000000000
 C        1.864987398     0.000000000     0.000000000
 C       -0.684452940     1.708805363     0.000000000
 C        0.105774892     2.804584042    -0.361180989
 C       -0.425482956     4.094414811    -0.356884039
 C       -1.755580246     4.316817556     0.007737488
 C       -2.547704630     3.217448528     0.365337165
 C       -2.021549832     1.928979379     0.357983138
 C       -2.356821425     5.645327182     0.028044321
 C       -1.719551644     6.784184853    -0.293215701
 C       -2.334596732     8.107154187    -0.268201155
 C       -1.562341731     9.219888459    -0.626046769
 C       -2.110424993    10.500555207    -0.615727909
 C       -3.453421564    10.691930505    -0.272937960
 C       -4.229125520     9.582000404     0.081260203
 C       -3.670937589     8.305368943     0.092000398
Si       -4.220361864    12.364245980    -0.245596897
 C       -6.005428423    12.153952453    -0.579225210
 C       -6.996864738    12.679854591     0.151310379
 C       -8.420044428    12.495620868    -0.138297646
 C       -9.361113987    13.101913030     0.707750384
 C      -10.720129931    12.961454986     0.481742634
 C      -11.179985290    12.173415455    -0.592958362
 C      -10.241968482    11.565810512    -1.440575145
 C       -8.880592423    11.741334708    -1.219693569
 N      -12.581332304    12.064681667    -0.777343280
 C      -13.338491542    11.586639934     0.406005926
 C      -13.013145893    11.448999347    -2.042146571
 C      -12.593867793    10.616015039     1.344578064
 C      -13.219242811     9.216136742     1.469136999
 N      -13.100821457     8.333254029     0.291548425
 C      -11.861660690     8.304435231    -0.373225637
 C      -10.667892856     8.333804238     0.381504023
 C       -9.436463361     8.306275383    -0.252013135
 C       -9.341683064     8.202912362    -1.647728931
 C      -10.523511143     8.131280724    -2.388119084
 C      -11.766969832     8.160711051    -1.769509163
 C      -14.312266481     8.309216162    -0.542857457
 C       -8.019611836     8.177178597    -2.277037266
 C       -7.835487077     8.080731701    -3.600132288
Si       -6.233166706     8.041109255    -4.475041987
 C       -6.188922109     6.627409126    -5.649075157
 C       -6.946769781     5.479221134    -5.386051180
 C       -6.921888247     4.401625781    -6.267405612
 C       -6.131090532     4.439120222    -7.423477971
 C       -5.369776008     5.583296206    -7.678433043
 C       -5.396059150     6.666291081    -6.800452636
 C       -6.139197089     3.284559833    -8.315666753
 C       -5.433455736     3.191855708    -9.455517863
 C       -5.443246982     2.036070156   -10.346118796
 C       -6.204969992     0.893181403   -10.089537630
 C       -6.184943768    -0.189844213   -10.968230926
 C       -5.407747910    -0.149054870   -12.129906916
 C       -4.644442354     0.997097860   -12.391049410
 C       -4.661422097     2.073639213   -11.508693829
Si       -5.369588010    -1.569027334   -13.300256790
 C       -6.699672196    -2.817505817   -12.909557567
 C       -5.601135046    -0.890833242   -15.063820942
 C       -3.676636390    -2.433754360   -13.199782535
 C       -6.054400595     9.688588599    -5.409204492
 C       -4.794245720     7.856511231    -3.248599305
 C       -3.923374440    13.143177789     1.463510363
 C       -3.432346868    13.485551767    -1.561804007
 C       -0.619463263    -0.912438342    -1.551610959
 C       -0.652622394    -0.914063002     1.537229961
 H        1.153550362     2.692087398    -0.652746840
 H        0.210037705     4.930675866    -0.642165997
 H       -3.587608217     3.368913215     0.649200717
 H       -2.688093293     1.109947479     0.642608148
 H       -3.405495543     5.664450730     0.342749573
 H       -0.670937776     6.769182184    -0.602336282
 H       -0.520366612     9.086323391    -0.909600797
 H       -1.458612526    11.333149929    -0.892538815
 H       -5.285401489     9.675031779     0.357993105
 H       -4.291594055     7.458036053     0.379664192
 H       -6.218957271    11.540279221    -1.471545744
 H       -6.816411747    13.301362941     1.038130662
 H       -9.021473097    13.701225726     1.552039629
 H      -11.438730627    13.456956613     1.129074928
 H      -10.563568088    10.929976955    -2.262352403
 H       -8.171125301    11.254748839    -1.893305643
 H      -14.103717943    11.570365374    -2.149841864
 H      -12.761198003    10.379977552    -2.132477026
 H      -12.546275798    11.992060642    -2.884699207
 H      -15.202161292     8.206153057     0.101626757
 H      -14.291438310     7.413672286    -1.191197223
 H      -14.438671950     9.203755932    -1.172739273
 H      -10.713073022     8.378406894     1.466018455
 H       -8.527011156     8.358149747     0.349104498
 H      -10.480721173     8.038691057    -3.475321830
 H      -12.657647644     8.079391978    -2.383559353
 H       -7.191839712     8.239188394    -1.559293258
 H       -8.695405951     8.024333090    -4.289008414
 H       -7.578285139     5.393079223    -4.495683685
 H       -7.521519791     3.519666731    -6.050888482
 H       -4.746335676     5.636976419    -8.568743774
 H       -4.778736161     7.533406371    -7.050500605
 H       -6.780737868     2.460249635    -7.990145221
 H       -4.791277792     4.015233617    -9.781189726
 H       -6.822482493     0.838004872    -9.194852338
 H       -6.799670450    -1.057102143   -10.712152613
 H       -4.019412496     1.086123438   -13.284077624
 H       -4.060702713     2.954359658   -11.727703980
 H      -13.614352008    12.507300795     0.975448056
 H      -14.297386135    11.138595327     0.072204761
 H      -11.531817332    10.514825362     1.033872320
 H      -12.536032699    11.064249329     2.356064474
 H      -12.727695327     8.677032124     2.317389318
 H      -14.291624294     9.304308656     1.749951016
 H        2.262429611    -1.029425860     0.051437367
 H        2.260736036     0.552683292     0.871432978
 H        2.275373099     0.469421022    -0.911159078
 H       -6.697686839    -3.643564579   -13.642877008
 H       -7.701452324    -2.351750351   -12.937703613
 H       -6.561936501    -3.261618411   -11.908147319
 H       -4.742543296    -0.178413063   -15.236173859
 C       -5.538653358    -1.976668540   -16.152644606
 C       -6.910256786    -0.096373355   -15.221884741
 H       -3.750646471    -3.326589043   -13.885762900
 C       -2.504475197    -1.560087510   -13.681163207
 C       -3.359793232    -2.945473387   -11.782475706
 H       -5.019594206     9.683850206    -5.857839128
 C       -7.069977087     9.835777704    -6.556285972
 C       -6.169864733    10.909834956    -4.480370754
 H       -4.975739913     8.605168117    -2.420952577
 C       -4.761420539     6.448592746    -2.626440598
 C       -3.414721870     8.161679474    -3.857100917
 H       -4.505665212    14.109634806     1.471504408
 C       -4.443838452    12.259034036     2.611796729
 C       -2.444535221    13.476215526     1.730044165
 H       -2.352917000    13.604469922    -1.253212534
 C       -3.455106472    12.876952128    -2.974514360
 C       -4.069319675    14.885750719    -1.612497218
 H       -0.132740539    -1.929776234    -1.523506618
 C       -2.145303901    -1.113384473    -1.575924495
 C       -0.193836480    -0.214327099    -2.856166501
 H       -1.777237974    -0.921831677     1.439559598
 C       -0.179235777    -2.375706024     1.628871493
 C       -0.298989911    -0.189136701     2.848502639
 H       -4.597710414    -2.541875932   -16.149686031
 H       -5.616430581    -1.515028874   -17.147799541
 H       -6.362876095    -2.698981291   -16.084909525
 H       -7.000404815     0.736818297   -14.510064355
 H       -7.807126771    -0.720749997   -15.115353104
 H       -6.961565595     0.350314500   -16.225041595
 H       -2.616944696    -1.209541542   -14.714843175
 H       -1.569745231    -2.139003310   -13.654312004
 H       -2.337637907    -0.681458333   -13.042152720
 H       -4.108793179    -3.647535099   -11.394247225
 H       -3.253918050    -2.133044243   -11.048971751
 H       -2.402724833    -3.486501436   -11.782364202
 H       -7.027733723     9.015357963    -7.285777275
 H       -6.869810482    10.757201684    -7.120998488
 H       -8.107469793     9.910243919    -6.202653987
 H       -5.438814209    10.896054549    -3.659723753
 H       -7.170539408    11.016206770    -4.037330967
 H       -5.985910087    11.833294966    -5.047157964
 H       -5.677558160     6.188497435    -2.080926379
 H       -3.933740526     6.379379734    -1.903789248
 H       -4.577058901     5.655179801    -3.364954880
 H       -3.327696828     9.181110992    -4.252068669
 H       -3.130307429     7.461117672    -4.652894250
 H       -2.640488522     8.072168995    -3.077478356
 H       -5.507831419    12.001160200     2.521743056
 H       -4.333069407    12.783135944     3.571500564
 H       -3.884815464    11.317159421     2.709751633
 H       -2.024127681    14.195720034     1.015943799
 H       -1.798368476    12.587028030     1.731773113
 H       -2.335689838    13.933801669     2.724301116
 H       -3.039133674    11.860922238    -3.023585723
 H       -2.849863119    13.489027324    -3.658119065
 H       -4.466675645    12.846879633    -3.403745233
 H       -4.001670841    15.430576277    -0.662119472
 H       -5.128260656    14.864153462    -1.908434131
 H       -3.554452213    15.507174370    -2.359069080
 H       -2.523803283    -1.686125675    -0.720108469
 H       -2.434967134    -1.678004874    -2.474340615
 H       -2.700091171    -0.165195829    -1.620191867
 H        0.893056759    -0.101732643    -2.957325939
 H       -0.644760565     0.781870615    -2.974189782
 H       -0.523280778    -0.804174248    -3.723795372
 H       -0.456519343    -2.978191566     0.754202323
 H       -0.641386009    -2.865898689     2.498093163
 H        0.906260871    -2.466539695     1.767168604
 H       -0.656561082     0.850009244     2.879930586
 H        0.779761503    -0.173686106     3.053028077
 H       -0.767969190    -0.701118660     3.700785664

