187   

Si        0.000000000     0.000000000     0.000000000
 C        1.865155255     0.000000000     0.000000000
 C       -0.681007845     1.710058386     0.000000000
 C        0.111701937     2.803696452     0.362353552
 C       -0.415961473     4.094961709     0.358390168
 C       -1.747141874     4.321670648    -0.000555101
 C       -2.541658668     3.224091993    -0.358428414
 C       -2.017571421     1.934516930    -0.356952993
 C       -2.343261216     5.653182516    -0.019685872
 C       -1.697082698     6.787966402     0.297870912
 C       -2.298684076     8.117304426     0.276904176
 C       -1.511387092     9.220427947     0.631634662
 C       -2.043629976    10.507589566     0.625874202
 C       -3.374385355    10.723799855     0.249118963
 C       -4.162202234     9.623129571    -0.107390390
 C       -3.630558572     8.334851046    -0.087434596
Si       -4.107355855    12.411428673     0.230930381
 C       -5.367172670    12.588707957    -1.081707849
 C       -5.347633623    11.918498545    -2.241869922
 C       -6.356704988    12.061409477    -3.291629160
 C       -6.225702461    11.302883375    -4.464116344
 C       -7.152112846    11.399566320    -5.488938050
 C       -8.232685766    12.304169633    -5.392848679
 C       -8.363432962    13.068711902    -4.216750659
 C       -7.446505925    12.928596777    -3.182869383
 N       -9.165826342    12.396365152    -6.433579916
 C       -8.724171354    12.086225920    -7.801963077
 C      -10.187781237    13.448175331    -6.341191728
 C       -7.528026585    12.909382035    -8.306266328
 C       -7.912864099    14.373097533    -8.578880297
 N       -6.770623440    15.219573182    -8.955002023
 C       -5.780697609    15.461163470    -7.984320839
 C       -6.044085598    15.291748650    -6.609168917
 C       -5.055290551    15.534868592    -5.667649305
 C       -3.787494896    15.994072672    -6.049830317
 C       -3.537635600    16.189612578    -7.411321202
 C       -4.511659554    15.938857237    -8.367177036
 C       -6.301109923    14.971035268   -10.329265803
 C       -2.771904328    16.238293150    -5.023657247
 C       -1.535243771    16.676728368    -5.294167681
Si       -0.211643731    17.006541919    -4.080980664
 C        0.508140924    18.674830487    -4.369296051
 C       -0.195191116    19.633070464    -5.108983893
 C        0.351363663    20.895582275    -5.326225163
 C        1.605123899    21.234526624    -4.801049663
 C        2.301536261    20.277105369    -4.057396562
 C        1.760139750    19.010682053    -3.842347475
 C        2.135389831    22.569879714    -5.056031371
 C        3.323126694    23.018876265    -4.615915915
 C        3.853178151    24.354227893    -4.871008768
 C        3.158419885    25.312071547    -5.613968232
 C        3.703056751    26.577318493    -5.833574883
 C        4.959514802    26.910354093    -5.317962061
 C        5.658556856    25.951140267    -4.572550397
 C        5.110271657    24.691006049    -4.350901886
Si        5.691835893    28.575720054    -5.599057835
 C        4.778529741    29.510123054    -6.930422072
 C        5.617869026    29.580854474    -3.984170466
 C        7.518069513    28.351521973    -6.087328021
 C       -0.899018156    16.946145035    -2.309934085
 C        1.139529593    15.682552005    -4.281472766
 C       -4.946019916    12.737087746     1.907089955
 C       -2.743047954    13.709963823    -0.021341325
 C       -0.651559481    -0.910147497    -1.540239051
 C       -0.619766538    -0.919142351     1.547294247
 H        1.159496159     2.688793613     0.653345356
 H        0.223552547     4.929739709     0.639408077
 H       -3.581396549     3.378442752    -0.640910951
 H       -2.685709564     1.118239512    -0.645625976
 H       -3.394957641     5.678241069    -0.320724271
 H       -0.646043527     6.765048706     0.599589834
 H       -0.472398309     9.072963113     0.919450575
 H       -1.383668942    11.327786574     0.921219253
 H       -5.210018873     9.732543275    -0.408148578
 H       -4.265446295     7.494997995    -0.363962915
 H       -6.162361347    13.314688397    -0.855410134
 H       -4.558763660    11.195958981    -2.496422796
 H       -5.383670487    10.616812064    -4.571260345
 H       -7.038215801    10.772720943    -6.367926454
 H       -9.181072726    13.770823857    -4.097386871
 H       -7.578467405    13.523668759    -2.278002373
 H      -10.830504249    13.442983665    -7.236351583
 H       -9.768847975    14.461969723    -6.220364608
 H      -10.843346001    13.233931163    -5.475474617
 H       -7.148223965    14.703696405   -10.981465714
 H       -5.546914567    14.169739387   -10.393107626
 H       -5.867781788    15.902992131   -10.736825531
 H       -7.016052614    14.944747689    -6.268284516
 H       -5.276279488    15.365045583    -4.612175356
 H       -2.560760952    16.549542917    -7.738948800
 H       -4.277660308    16.113636350    -9.412079041
 H       -3.123884623    16.029018616    -4.005207692
 H       -1.217352204    16.866084846    -6.333664744
 H       -1.181356818    19.425491845    -5.537373484
 H       -0.206409536    21.626285052    -5.908918683
 H        3.277385909    20.515258360    -3.638575695
 H        2.351594479    18.302651178    -3.255424836
 H        1.483027452    23.214616711    -5.652402484
 H        3.975471128    22.374200424    -4.019728754
 H        2.180159067    25.077054394    -6.029353531
 H        3.112153130    27.284110977    -6.422596134
 H        6.644755142    26.154652671    -4.145756475
 H        5.667715207    23.959703409    -3.768718415
 H       -8.467038740    10.999038748    -7.831396183
 H       -9.588935026    12.203979224    -8.492671435
 H       -6.699695336    12.873158191    -7.566242992
 H       -7.119016105    12.447874943    -9.223490514
 H       -8.671126077    14.430549697    -9.391960609
 H       -8.398983838    14.826228695    -7.684580484
 H        2.262869362    -1.029935267    -0.036437787
 H        2.275869222     0.483176151     0.903732182
 H        2.259971959     0.539905353    -0.879936695
 H        5.249040744    30.490992631    -7.122284552
 H        3.726095988    29.694867336    -6.652584939
 H        4.782886379    28.948378282    -7.882164635
 H        6.034584124    30.597965542    -4.239108934
 C        4.178311018    29.769514174    -3.471600826
 C        6.471563342    28.987521596    -2.849146264
 H        8.009772430    27.831935210    -5.213982872
 C        7.690846336    27.454479290    -7.326362792
 C        8.258633855    29.679960882    -6.322745559
 H       -1.483336952    15.981067222    -2.239347074
 C        0.189521748    16.925985868    -1.222974355
 C       -1.866105703    18.110053866    -2.025158589
 H        1.884895410    15.869158613    -3.455477175
 C        0.606092202    14.247608130    -4.129403941
 C        1.881732678    15.800484240    -5.625061598
 H       -5.361184025    13.784371951     1.850558195
 C       -6.116630705    11.772438434     2.168727260
 C       -3.970616847    12.672743101     3.095173939
 H       -2.059309096    13.615560548     0.871581201
 C       -1.911310405    13.448893458    -1.289438634
 C       -3.278600994    15.151512278    -0.059141996
 H       -1.776042149    -0.920618702    -1.441602215
 C       -0.300791040    -0.179290540    -2.848985599
 C       -0.174736557    -2.370183098    -1.638039334
 H       -0.138269126    -1.938856649     1.511163617
 C       -0.186327198    -0.232667036     2.855550980
 C       -2.146428746    -1.113375914     1.574478447
 H        3.518476545    30.264835335    -4.195393109
 H        4.178152835    30.402712529    -2.572773108
 H        3.701464556    28.822419940    -3.180478122
 H        7.536446051    28.907192804    -3.101395969
 H        6.124332978    27.995436855    -2.527587023
 H        6.415321268    29.633153768    -1.960503853
 H        7.232253555    26.461887111    -7.210659092
 H        8.758768124    27.278412813    -7.518720736
 H        7.281829070    27.902666812    -8.241514531
 H        8.239521543    30.348892220    -5.452680830
 H        7.870350085    30.239797848    -7.183876164
 H        9.319601352    29.484960950    -6.536810850
 H        0.858290039    16.058662023    -1.293052498
 H       -0.272712388    16.876630685    -0.226274618
 H        0.811770177    17.831918904    -1.223405330
 H       -2.704285410    18.166262990    -2.733900602
 H       -1.366834208    19.089809929    -2.029922676
 H       -2.312464097    17.998407038    -1.027289449
 H        0.132108125    14.058411350    -3.157312269
 H        1.431863041    13.527160691    -4.214228469
 H       -0.119613632    13.976416966    -4.910109019
 H        2.334011440    16.788836064    -5.788179352
 H        1.239832897    15.582729290    -6.489605716
 H        2.707246764    15.075762098    -5.664293269
 H       -6.888535936    11.800442683     1.387600366
 H       -6.620196397    12.036592077     3.109428597
 H       -5.792364146    10.727316373     2.277454276
 H       -3.155129432    13.404179147     3.029948600
 H       -3.519456711    11.678549490     3.225330119
 H       -4.503855585    12.891099844     4.031858666
 H       -1.500653539    12.431438921    -1.347425938
 H       -1.046131812    14.128622471    -1.313138582
 H       -2.480291936    13.624015093    -2.214863998
 H       -3.840674193    15.433730823     0.839626716
 H       -3.920538805    15.345474905    -0.930343029
 H       -2.439558378    15.860929741    -0.128235295
 H       -0.659887452     0.859546746    -2.875490931
 H       -0.770097868    -0.688188203    -3.702875465
 H        0.777653901    -0.161282474    -3.054878534
 H       -0.452239989    -2.977774223    -0.767043794
 H        0.911220302    -2.457909392    -1.774922439
 H       -0.634105574    -2.857010793    -2.510645124
 H        0.901735536    -0.127284065     2.953609138
 H       -0.516181893    -0.826881400     3.719823014
 H       -0.630530219     0.765293962     2.981413322
 H       -2.528862307    -1.680660073     0.716591448
 H       -2.696972021    -0.163141231     1.623402636
 H       -2.436782772    -1.681065466     2.470571013

