187   

Si        0.000000000     0.000000000     0.000000000
 C        1.865019389     0.000000000     0.000000000
 C       -0.663691557     1.718025275     0.000000000
 C        0.128277405     2.794485936    -0.413778017
 C       -0.380782329     4.092917485    -0.411221755
 C       -1.684154615     4.348234698     0.022971858
 C       -2.477104887     3.268676499     0.434270425
 C       -1.979231754     1.968450029     0.411720133
 C       -2.259737513     5.688588904     0.043663339
 C       -1.616156828     6.802963683    -0.343575685
 C       -2.191958785     8.143351010    -0.322809865
 C       -3.495793863     8.398098468     0.111629940
 C       -4.005663216     9.695720481     0.114590810
 C       -3.230424904    10.768848922    -0.339058303
 C       -1.927432172    10.512033899    -0.783790425
 C       -1.415071891     9.217177262    -0.774561967
Si       -3.907273909    12.486533929    -0.334405012
 C       -2.831038375    13.497687401    -1.418731272
 C       -3.275410720    14.295316015    -2.398608811
 C       -2.422597638    15.105253044    -3.268048565
 C       -3.032507281    15.893117420    -4.252393224
 C       -2.283351505    16.683786924    -5.109177132
 C       -0.883481569    16.773993526    -4.956427633
 C       -0.270472718    15.997411387    -3.948977778
 C       -1.031382939    15.170665167    -3.135668576
 N       -0.107179498    17.565698393    -5.809346883
 C       -0.775146236    18.485327619    -6.740386930
 C        1.188933647    18.031641999    -5.296601509
 C       -1.611968902    19.597533699    -6.082239433
 C       -0.797042538    20.868989648    -5.779972412
 N       -1.071025626    21.463390539    -4.453055376
 C       -0.563582952    20.655061999    -3.385977299
 C        0.824761793    20.714213886    -3.174291780
 C        1.400843140    19.963550570    -2.162026070
 C        0.615461414    19.140969247    -1.339731621
 C       -0.764134751    19.093321777    -1.552291046
 C       -1.355575429    19.847398704    -2.561870531
 C       -2.473496311    21.886328928    -4.292526105
 C        1.288331643    18.374370482    -0.288848974
 C        0.672713053    17.550757229     0.569063199
Si        1.539844632    16.605830531     1.872048352
 C        1.144730501    14.814716046     1.931779171
 C        0.732549405    14.064727240     0.826361497
 C        0.452300096    12.704054997     0.962958973
 C        0.589807957    12.060240296     2.198350764
 C        1.016100022    12.815225818     3.296899051
 C        1.296581676    14.170833794     3.166945351
 C        0.293784573    10.634524111     2.331173558
 C        0.413508934     9.981157500     3.499564279
 C        0.149191830     8.571877388     3.753556748
 C       -0.281901572     7.675165899     2.775004898
 C       -0.514892704     6.336743153     3.094444971
 C       -0.326320187     5.870538310     4.400335940
 C        0.108587364     6.769237960     5.382320427
 C        0.347404768     8.100857662     5.059692654
Si       -0.633917657     4.105818016     4.819762008
 C       -2.097561208     3.441251709     3.878629376
 C        0.914744301     3.102474438     4.349386209
 C       -0.934017105     3.909932386     6.688989183
 C        3.426489211    16.768449433     1.674698741
 C        1.020529834    17.407589601     3.523685278
 C       -5.691809604    12.524023886    -1.000367787
 C       -3.928757969    13.170067066     1.438922987
 C       -0.628140085    -0.910806833    -1.547602207
 C       -0.657184060    -0.910640403     1.537544069
 H        1.159739068     2.658882189    -0.750914604
 H        0.254581870     4.911669740    -0.745294508
 H       -3.499492829     3.443963130     0.765390092
 H       -2.648606613     1.165447804     0.732471641
 H       -3.289603122     5.739341657     0.409465882
 H       -0.587021110     6.752020258    -0.712352339
 H       -4.123339800     7.581486933     0.463467430
 H       -5.026667100     9.833029888     0.481803246
 H       -1.280250943    11.304332654    -1.172107895
 H       -0.401165173     9.040520174    -1.128870223
 H       -1.756713479    13.428407661    -1.186060892
 H       -4.342424518    14.396664963    -2.640379671
 H       -4.116817085    15.871252939    -4.367139774
 H       -2.793790128    17.232648969    -5.893032112
 H        0.804431825    16.037837261    -3.802720445
 H       -0.530517720    14.572871484    -2.372328667
 H        1.638256285    18.774550327    -5.973213724
 H        1.885649621    17.174239703    -5.245801791
 H        1.111661181    18.484378470    -4.290790179
 H       -2.690160485    22.665018932    -5.044263925
 H       -2.600331417    22.347057501    -3.297033217
 H       -3.215615740    21.081454339    -4.403636281
 H        1.433219521    21.365198717    -3.799229389
 H        2.476990504    20.021599350    -2.000219717
 H       -1.391923019    18.452713959    -0.930628892
 H       -2.430103127    19.788191951    -2.712817518
 H        2.374491523    18.540727428    -0.275734539
 H       -0.418477519    17.399221076     0.539510508
 H        0.606875620    14.518856603    -0.160623338
 H        0.128238205    12.133278288     0.094179889
 H        1.136332375    12.346417821     4.272657212
 H        1.629151113    14.696278985     4.067633902
 H       -0.044054955    10.129571857     1.423426386
 H        0.747287576    10.526689146     4.392385968
 H       -0.449983535     8.019029984     1.754284552
 H       -0.853570325     5.678177971     2.286104797
 H        0.276696291     6.463704048     6.418193120
 H        0.687993766     8.783821527     5.835358811
 H       -0.005909942    18.923563082    -7.415256828
 H       -1.428750627    17.867006739    -7.403561243
 H       -2.471473526    19.846787240    -6.729470498
 H       -2.057023955    19.210198192    -5.140732565
 H        0.294497494    20.661054919    -5.837319302
 H       -1.001983765    21.652307192    -6.542613220
 H        2.263058450    -1.029013400     0.054047237
 H        2.260183162     0.554983878     0.870869886
 H        2.275988052     0.466996247    -0.911932282
 H       -2.363786910     2.423709243     4.212727269
 H       -1.886684022     3.394631893     2.793627248
 H       -2.984324034     4.084482138     4.020703535
 H        0.629974957     2.018551626     4.477849231
 C        1.328425664     3.319280669     2.883560315
 C        2.128992395     3.388450878     5.251071847
 H       -0.018086781     4.326762657     7.199777094
 C       -2.155903760     4.707280896     7.181029215
 C       -1.087667439     2.442043854     7.129585049
 H        3.641389713    17.873434037     1.602464423
 C        4.213900813    16.211370705     2.873755436
 C        3.937946107    16.091546742     0.389605844
 H        1.629611392    16.901805220     4.326682582
 C        1.324055679    18.914680010     3.580191702
 C       -0.468740289    17.180538698     3.839249419
 H       -5.905457347    13.612169793    -1.216335058
 C       -5.835018151    11.738063882    -2.316598869
 C       -6.765926636    12.034614837    -0.013100945
 H       -4.726217672    12.578406464     1.976708686
 C       -2.609657755    12.973087752     2.199200607
 C       -4.311588226    14.660729386     1.492190492
 H       -0.164722138    -1.938774290    -1.508520969
 C       -2.157940805    -1.078233814    -1.579725300
 C       -0.178396169    -0.234362459    -2.855551456
 H       -1.777531851    -0.964648700     1.409837345
 C       -0.129702023    -2.350827454     1.665560155
 C       -0.368719722    -0.152568179     2.845096750
 H        0.521209231     3.115799810     2.164383041
 H        2.151193830     2.641382286     2.618104778
 H        1.689344857     4.339294226     2.689104100
 H        1.948894615     3.161005528     6.309018946
 H        2.472315727     4.430530609     5.186372159
 H        2.980642975     2.765514436     4.942363806
 H       -2.105444845     5.777849970     6.937235535
 H       -2.233037128     4.643719062     8.275409057
 H       -3.104323464     4.324074834     6.781387664
 H       -0.218175462     1.820458216     6.878983188
 H       -1.977842239     1.958743712     6.706052851
 H       -1.199452762     2.388099504     8.221895158
 H        3.979013736    16.713703752     3.820755208
 H        5.292716317    16.351503791     2.712565326
 H        4.065808151    15.131713175     3.019597384
 H        3.450167220    16.455217491    -0.525170932
 H        3.822032570    14.998078878     0.411590132
 H        5.012841136    16.283156748     0.264808530
 H        2.387962558    19.149744796     3.447939805
 H        1.039758401    19.319546962     4.561945626
 H        0.760640542    19.493724007     2.834244839
 H       -0.753480941    16.118858707     3.858971198
 H       -1.138984169    17.690841136     3.133876594
 H       -0.707854118    17.580404829     4.834903924
 H       -5.140478203    12.067892810    -3.102237025
 H       -6.846715909    11.864316275    -2.726096027
 H       -5.687162357    10.656634500    -2.185627304
 H       -6.778071370    12.595986626     0.930071445
 H       -6.675175154    10.968481418     0.231971146
 H       -7.764937164    12.160187365    -0.455699126
 H       -2.248348093    11.934158215     2.199451924
 H       -2.734852259    13.248889662     3.255508471
 H       -1.794916618    13.604275316     1.813071161
 H       -5.290965149    14.877700384     1.048437084
 H       -3.569984761    15.307520585     1.000468973
 H       -4.366405259    14.995583828     2.537962435
 H       -2.552015115    -1.647160448    -0.728183543
 H       -2.456067307    -1.632698759    -2.481618243
 H       -2.692430495    -0.118580362    -1.621012498
 H        0.911693608    -0.148792124    -2.950479733
 H       -0.604691291     0.770813253    -2.984987702
 H       -0.515802272    -0.824238090    -3.719972917
 H       -0.347966968    -2.975365829     0.789950888
 H       -0.604918373    -2.849625194     2.522784475
 H        0.952539750    -2.395455506     1.846496517
 H       -0.797899021     0.860671119     2.857242075
 H        0.703869781    -0.058891601     3.062234850
 H       -0.811519978    -0.685446066     3.698101509

