187   

Si        0.000000000     0.000000000     0.000000000
 C        1.865055501     0.000000000     0.000000000
 C       -0.684452953     1.708696401     0.000000000
 C        0.102762598     2.803302781     0.371243513
 C       -0.428209136     4.093231661     0.366922950
 C       -1.756547029     4.317642638    -0.003475934
 C       -2.545474095     3.219179159    -0.370901270
 C       -2.018560406     1.930864592    -0.367528430
 C       -2.356752936     5.647295645    -0.023745467
 C       -1.718079588     6.783582048     0.303346784
 C       -2.325748515     8.110253522     0.280488176
 C       -1.546741092     9.216382491     0.645939372
 C       -2.085063948    10.500570375     0.638732729
 C       -3.420619276    10.706968802     0.271140529
 C       -4.200593958     9.605093815    -0.094771318
 C       -3.655788257     8.321611062    -0.093195562
Si       -4.140428323    12.398921262     0.258549301
 C       -5.965838294    12.292636426     0.280792976
 C       -6.799971937    12.932611388    -0.548401550
 C       -8.259245653    12.816261908    -0.492362420
 C       -9.029372314    13.538046480    -1.417522728
 C      -10.412183632    13.462201635    -1.406364792
 C      -11.071080984    12.680251796    -0.435928963
 C      -10.305334214    11.953755259     0.487552721
 C       -8.916320261    12.009624651     0.439511216
 N      -12.487802908    12.646686596    -0.481616418
 C      -13.154234545    13.948182504    -0.276053664
 C      -13.129928019    11.534429450     0.234999943
 C      -13.421099566    14.356902926     1.183151362
 C      -12.155055518    14.657695662     2.006761387
 N      -11.510102381    15.953127499     1.735335357
 C      -12.320714429    17.096638558     1.731673032
 C      -13.375493817    17.201871857     2.666096974
 C      -14.188810702    18.322209757     2.680754140
 C      -13.960677415    19.396813669     1.808268519
 C      -12.898610026    19.303362424     0.905205770
 C      -12.083174146    18.179857616     0.863752960
 C      -10.411368574    15.895678869     0.762908780
 C      -14.852152940    20.555625624     1.867594182
 C      -14.733996214    21.638281042     1.086775796
Si      -15.848659965    23.085028421     1.162318833
 C      -16.527797892    23.343913687     2.852272259
 C      -15.747278676    23.023985349     3.971281564
 C      -16.246139185    23.213824403     5.257060597
 C      -17.529927108    23.738281933     5.458019849
 C      -18.302683362    24.063956624     4.340141148
 C      -17.807613660    23.871477558     3.050731477
 C      -18.008633554    23.918917873     6.824550828
 C      -19.216725597    24.406767204     7.153783875
 C      -19.696077082    24.587668329     8.520031648
 C      -18.924915555    24.262631423     9.638949144
 C      -19.423076402    24.451972218    10.928000556
 C      -20.704344289    24.975991667    11.125706000
 C      -21.479875676    25.302906031    10.005026681
 C      -20.981711902    25.108646831     8.719826875
Si      -21.376951994    25.232184089    12.820034078
 C      -20.046232821    25.075318890    14.117929655
 C      -22.166436721    26.962823910    12.891147453
 C      -22.726177929    23.935817147    13.170094867
 C      -14.859086702    24.630193143     0.659274229
 C      -17.264715775    22.835057324    -0.083951459
 C       -3.577944672    13.341426600     1.812725213
 C       -3.523890521    13.330995936    -1.279747410
 C       -0.649835703    -0.911407478    -1.540355651
 C       -0.619336330    -0.919526950     1.547209822
 H        1.148801518     2.690162599     0.669071977
 H        0.206130214     4.928709892     0.657324942
 H       -3.582973399     3.371848111    -0.662396362
 H       -2.682561666     1.113568578    -0.662843373
 H       -3.405584192     5.669427874    -0.335086761
 H       -0.669831243     6.764314380     0.614665656
 H       -0.508405306     9.073137667     0.938634418
 H       -1.430030923    11.325499719     0.932062124
 H       -5.248436260     9.708695513    -0.394948114
 H       -4.281396339     7.480211244    -0.385785614
 H       -6.351292356    11.634960106     1.078476552
 H       -6.449878364    13.599326712    -1.347101256
 H       -8.533838623    14.155786537    -2.167123843
 H      -10.997533831    13.991778459    -2.155685899
 H      -10.785855105    11.336848668     1.241040697
 H       -8.339188563    11.423633842     1.156630449
 H      -14.207718027    11.530641051    -0.005170672
 H      -13.016880891    11.568926308     1.329735406
 H      -12.711777813    10.580139032    -0.132911445
 H       -9.812096773    14.979932012     0.923544136
 H       -9.732986314    16.752548776     0.928770698
 H      -10.746332379    15.900197647    -0.287036443
 H      -13.550591924    16.402209346     3.379582886
 H      -15.010986034    18.374709082     3.395923686
 H      -12.699670728    20.124880100     0.215513059
 H      -11.273889552    18.145183164     0.142121434
 H      -15.637113002    20.457904643     2.631352545
 H      -13.944478889    21.707982844     0.323618773
 H      -14.735706493    22.614655012     3.874442008
 H      -15.628024299    22.953319432     6.114303259
 H      -19.302795103    24.473512273     4.468141365
 H      -18.458638143    24.145856018     2.216364994
 H      -17.297710367    23.621958292     7.601259975
 H      -19.927307893    24.703794095     6.376960358
 H      -17.923130748    23.856197665     9.512471007
 H      -18.773083588    24.178775852    11.763881481
 H      -22.488025899    25.716554449    10.098444515
 H      -21.599251680    25.367301458     7.861845190
 H      -12.565115566    14.744433378    -0.783457245
 H      -14.127452019    13.891545054    -0.821407725
 H      -14.083498509    15.248770821     1.178703373
 H      -14.004169856    13.569405820     1.696403504
 H      -12.411614584    14.640839950     3.093926586
 H      -11.405209632    13.846238332     1.864218557
 H        2.262611201    -1.029801457    -0.042355737
 H        2.275761375     0.477895093     0.906569029
 H        2.260358952     0.544916921    -0.876659376
 H      -20.448448312    25.276896340    15.126812800
 H      -19.228949476    25.796880514    13.936615338
 H      -19.605858568    24.062937173    14.131751009
 H      -22.986494356    26.960206839    12.115320868
 C      -22.806545948    27.290612239    14.251828489
 C      -21.173056086    28.079349729    12.521750767
 H      -23.040494293    24.105512648    14.240441304
 C      -23.972312553    24.083264233    12.278905103
 C      -22.202241170    22.492930977    13.049400891
 H      -14.474032240    24.428711644    -0.381689166
 C      -15.714961452    25.907948384     0.613920787
 C      -13.648370583    24.871096703     1.578859476
 H      -17.890879278    23.772368234    -0.039430219
 C      -16.773962960    22.661267863    -1.532460367
 C      -18.162560948    21.640395283     0.284889670
 H       -2.454618635    13.419399152     1.739679533
 C       -4.151311569    14.767194113     1.890689308
 C       -3.918566727    12.590812772     3.112317884
 H       -4.075585479    14.315399927    -1.287507709
 C       -2.014980116    13.632689082    -1.248497862
 C       -3.851131395    12.585478268    -2.586486579
 H       -1.774346530    -0.923431807    -1.442138913
 C       -0.299266308    -0.180608858    -2.849130360
 C       -0.171213515    -2.370929518    -1.637402403
 H       -0.134892401    -1.937917582     1.512357527
 C       -0.189428029    -0.230682426     2.855409254
 C       -2.145532397    -1.117586815     1.572454830
 H      -23.580069587    26.572406493    14.552924245
 H      -23.299930149    28.272498907    14.207382049
 H      -22.072716786    27.353075097    15.066330758
 H      -20.715202252    27.942351364    11.531530838
 H      -20.358746271    28.188139633    13.250327285
 H      -21.690454862    29.048743617    12.488931090
 H      -24.458222293    25.063170825    12.366921445
 H      -24.729465095    23.339381948    12.566982851
 H      -23.759451718    23.905559281    11.215355627
 H      -21.358147730    22.277396841    13.717066928
 H      -21.891172700    22.236009957    12.026495107
 H      -22.995385195    21.780384685    13.317594966
 H      -16.549411227    25.848645772    -0.096271919
 H      -15.099938785    26.761542235     0.293983793
 H      -16.129292723    26.180856831     1.595148962
 H      -12.957768610    24.017800403     1.623936910
 H      -13.938600826    25.117803216     2.610400316
 H      -13.060641338    25.724783630     1.212967220
 H      -16.186495465    23.512589980    -1.899042000
 H      -17.633755960    22.567515124    -2.211325522
 H      -16.172165012    21.752415969    -1.672905069
 H      -18.602206286    21.717514168     1.289023622
 H      -17.634658333    20.677193994     0.229815869
 H      -19.005880478    21.570577348    -0.416151262
 H       -3.877125182    15.394550229     1.032832524
 H       -3.763447936    15.280396724     2.782492939
 H       -5.247207659    14.784175983     1.979150576
 H       -3.506878924    11.572172365     3.148016706
 H       -4.999412120    12.519071973     3.295240489
 H       -3.494775912    13.122617674     3.976314845
 H       -1.710792637    14.249055173    -0.392999065
 H       -1.726295809    14.195235792    -2.148503818
 H       -1.396613697    12.723904460    -1.246765083
 H       -4.919798651    12.364704722    -2.712426383
 H       -3.307416200    11.634067162    -2.681058208
 H       -3.557224143    13.194573767    -3.452874518
 H       -0.659888958     0.857667413    -2.876525040
 H       -0.767169957    -0.690693215    -3.703134994
 H        0.779310484    -0.161071372    -3.054318194
 H       -0.449254090    -2.978713588    -0.766704045
 H        0.915023862    -2.457492320    -1.772856294
 H       -0.628832264    -2.858399915    -2.510584996
 H        0.898235630    -0.122357065     2.954768256
 H       -0.518804029    -0.825093846     3.719728883
 H       -0.636489226     0.766141860     2.979777303
 H       -2.525796006    -1.684657558     0.713418616
 H       -2.698371579    -0.168739011     1.621889083
 H       -2.435462678    -1.687180961     2.467470065

