187   

Si        0.000000000     0.000000000     0.000000000
 C        1.865335743     0.000000000     0.000000000
 C       -0.677194079     1.711518868     0.000000000
 C        0.134236091     2.808241578    -0.307226813
 C       -0.389221624     4.101074239    -0.304285075
 C       -1.734280257     4.326747686    -0.000535108
 C       -2.547048211     3.226222527     0.303237279
 C       -2.027211613     1.934864841     0.302888675
 C       -2.324987180     5.660907004     0.014719367
 C       -1.657741469     6.795764255    -0.255229908
 C       -2.247379749     8.130428232    -0.240282187
 C       -3.593240205     8.355967153     0.063674590
 C       -4.115386059     9.648488806     0.066328771
 C       -3.297008246    10.745159499    -0.225532429
 C       -1.948669475    10.523424408    -0.530376235
 C       -1.433089133     9.229695957    -0.542043593
Si       -3.984634418    12.450004489    -0.222285185
 C       -2.636068418    13.677271232    -0.105919342
 C       -2.461966705    14.746325591    -0.892462670
 C       -1.350393401    15.690544993    -0.737242952
 C       -1.260450515    16.779813754    -1.616259386
 C       -0.226095523    17.697649906    -1.506336456
 C        0.757288977    17.524267618    -0.521419767
 C        0.688996372    16.430753818     0.347027502
 C       -0.355421967    15.519352053     0.229346068
 N        1.789446486    18.526897249    -0.484742381
 C        1.474785786    19.594004754     0.490907996
 C        3.143906192    17.967487816    -0.326916497
 C        1.744402434    19.242992075     1.967780127
 C        0.811231229    20.004003495     2.928896136
 N       -0.417795051    19.279103497     3.307056406
 C       -1.395427305    19.134368095     2.294695192
 C       -1.810693442    20.287226657     1.597049703
 C       -2.765460488    20.191654247     0.598276973
 C       -3.369765906    18.964169360     0.289869174
 C       -2.982291711    17.831042897     1.008506632
 C       -2.020053223    17.909738169     2.008446887
 C       -0.145936604    18.083143850     4.122474619
 C       -4.372502424    18.921695108    -0.775146705
 C       -5.017419782    17.812735802    -1.160047729
Si       -6.271759550    17.735899117    -2.485717502
 C       -5.836406484    16.363574215    -3.630871878
 C       -4.488339546    16.147049659    -3.946960650
 C       -4.122426534    15.118465098    -4.809468393
 C       -5.096156202    14.304772445    -5.404456735
 C       -6.440498049    14.532306487    -5.098122657
 C       -6.808613038    15.549149517    -4.217372411
 C       -4.664078840    13.238648189    -6.302093680
 C       -5.489039030    12.376722650    -6.920178788
 C       -5.053570826    11.311709346    -7.817232393
 C       -3.708685160    11.086696778    -8.121586982
 C       -3.335901703    10.056542089    -8.984840599
 C       -4.302135554     9.223057791    -9.556494334
 C       -5.651872401     9.445633353    -9.251029737
 C       -6.021353761    10.478311481    -8.393856936
Si       -3.827042261     7.858828280   -10.697839109
 C       -1.986859412     7.554602653   -10.675288136
 C       -4.759277123     6.288389856   -10.161119382
 C       -4.349730755     8.300826491   -12.473738049
 C       -7.977481288    17.430789809    -1.703244343
 C       -6.332233433    19.354556262    -3.480472644
 C       -4.972921426    12.682113964    -1.831083545
 C       -5.124456016    12.710407806     1.276552977
 C       -0.614487273    -0.920716873    -1.548513592
 C       -0.656619094    -0.905112356     1.540655189
 H        1.193690926     2.694758347    -0.552893631
 H        0.264395878     4.937810682    -0.543874686
 H       -3.597686097     3.379944711     0.542255175
 H       -2.709094098     1.116043360     0.548735376
 H       -3.388535999     5.687689351     0.268811185
 H       -0.594199836     6.768819456    -0.510462654
 H       -4.247300698     7.518610323     0.298905916
 H       -5.176084841     9.763334103     0.305944912
 H       -1.266001819    11.344386546    -0.771872228
 H       -0.384088859     9.074570964    -0.786799265
 H       -1.939345270    13.465568210     0.723981839
 H       -3.134034771    14.993609012    -1.725882949
 H       -2.020766705    16.922311728    -2.384797002
 H       -0.162839395    18.553731860    -2.177248693
 H        1.452644436    16.280838355     1.104060745
 H       -0.392066472    14.667409204     0.908546768
 H        3.876233506    18.784624384    -0.441636904
 H        3.323237598    17.243686534    -1.141635700
 H        3.332251103    17.462163019     0.631017775
 H        0.544032930    18.349921481     4.940859015
 H        0.289876439    17.241764516     3.560345005
 H       -1.088548716    17.746127583     4.591522881
 H       -1.382308036    21.254577805     1.845754408
 H       -3.057465450    21.089605337     0.053791205
 H       -3.430691172    16.859624283     0.783387436
 H       -1.734558324    17.001959377     2.531311402
 H       -4.548244593    19.902476985    -1.236750052
 H       -4.825943946    16.841464487    -0.672285772
 H       -3.689116800    16.766744291    -3.525357479
 H       -3.069358740    14.950220318    -5.029200890
 H       -7.214916134    13.913231591    -5.546370880
 H       -7.874406483    15.675100983    -4.010668109
 H       -3.581679371    13.177107468    -6.451464255
 H       -6.571112201    12.436890853    -6.772157001
 H       -2.936175239    11.717253224    -7.684648139
 H       -2.268477833     9.929609591    -9.185699086
 H       -6.450151836     8.824531176    -9.666935123
 H       -7.074451900    10.635949147    -8.169141978
 H        2.070828136    20.485834490     0.195379668
 H        0.402945979    19.871360804     0.350145539
 H        1.626030698    18.153889876     2.123079309
 H        2.797821993    19.463387107     2.216072107
 H        1.355603120    20.238114116     3.873403476
 H        0.526308550    20.988945732     2.497658455
 H        2.263535305    -1.029115445     0.051147668
 H        2.261170237     0.552459020     0.871631599
 H        2.274992075     0.469821097    -0.911287665
 H       -1.715618062     6.707768886   -11.330716711
 H       -1.638117708     7.309004140    -9.655528945
 H       -1.421631451     8.437450487   -11.021832963
 H       -5.857107093     6.541603499   -10.231423901
 C       -4.495587885     5.075790452   -11.071265343
 C       -4.459751816     5.896241052    -8.702948988
 H       -3.962865226     7.461938827   -13.121919747
 C       -5.874144657     8.387134746   -12.667908801
 C       -3.715002351     9.614740328   -12.965450174
 H       -8.705578634    17.365366737    -2.562754844
 C       -8.045612328    16.109467685    -0.916736805
 C       -8.431296611    18.579659498    -0.785158460
 H       -6.509255695    20.177033837    -2.728424630
 C       -5.009480057    19.649981787    -4.211601519
 C       -7.481119252    19.391060641    -4.503766652
 H       -5.061841164    13.795889294    -2.001312347
 C       -4.227395236    12.072260648    -3.031511013
 C       -6.397165588    12.102242030    -1.786779113
 H       -5.995879923    12.009139113     1.130573000
 C       -4.444149569    12.349993592     2.609383810
 C       -5.671774385    14.146080341     1.365062180
 H       -0.121215413    -1.934950292    -1.516230715
 C       -2.138758727    -1.133052602    -1.574150421
 C       -0.191611863    -0.225162224    -2.855495189
 H       -1.781293196    -0.905583069     1.443234646
 C       -0.192418604    -2.369357060     1.637287488
 C       -0.297934246    -0.177570372     2.849079264
 H       -4.753490021     5.256637953   -12.122692918
 H       -5.109275066     4.222767898   -10.746859796
 H       -3.452839349     4.733256685   -11.036819346
 H       -4.678468121     6.698733012    -7.983630713
 H       -3.417684323     5.587249678    -8.546196448
 H       -5.083532970     5.040888184    -8.406560968
 H       -6.398988849     7.457153479   -12.415237845
 H       -6.106885924     8.592992447   -13.722926287
 H       -6.332349510     9.201981795   -12.090046470
 H       -2.617709844     9.605912319   -12.939521780
 H       -4.053990736    10.492068433   -12.395864159
 H       -3.995865707     9.800336161   -14.012058259
 H       -7.726123584    15.233019901    -1.498131052
 H       -9.080119618    15.909808002    -0.603977760
 H       -7.445627316    16.138336045     0.004691756
 H       -8.504865518    19.546039692    -1.300121933
 H       -7.774896742    18.716480324     0.086554674
 H       -9.433360557    18.369169736    -0.385070636
 H       -4.136933057    19.687152680    -3.544758939
 H       -5.062605638    20.630342591    -4.705423347
 H       -4.790117627    18.919902471    -5.004122265
 H       -8.474758880    19.293990987    -4.047945862
 H       -7.390818593    18.616047580    -5.278035000
 H       -7.481412698    20.353907337    -5.035281745
 H       -3.247689490    12.533372651    -3.215110709
 H       -4.812318308    12.220128459    -3.952653768
 H       -4.075146809    10.987241992    -2.945974601
 H       -7.026908473    12.554009297    -1.010643923
 H       -6.413554303    11.013237792    -1.648177962
 H       -6.904329987    12.295469489    -2.744494752
 H       -4.066201625    11.318642503     2.640433055
 H       -5.164628021    12.435588079     3.435027231
 H       -3.608291764    13.017716661     2.859142745
 H       -6.202902476    14.464351086     0.457045249
 H       -4.888025943    14.889719182     1.570009377
 H       -6.393675655    14.224742134     2.189701834
 H       -2.513813272    -1.704098140    -0.715441902
 H       -2.423079728    -1.704784807    -2.469537070
 H       -2.700389742    -0.189424887    -1.623741597
 H        0.895049448    -0.108332129    -2.956037149
 H       -0.645880950     0.768965926    -2.976130299
 H       -0.517885866    -0.819192296    -3.721133970
 H       -0.475427413    -2.973621911     0.765733796
 H       -0.655647475    -2.853019567     2.509581559
 H        0.892821871    -2.466498573     1.773533691
 H       -0.649636169     0.863817008     2.876652313
 H        0.780984138    -0.167520111     3.052948206
 H       -0.769621769    -0.683526150     3.703438807

