187   

Si        0.000000000     0.000000000     0.000000000
 C        1.865355575     0.000000000     0.000000000
 C       -0.675226477     1.712484855     0.000000000
 C        0.141441878     2.813474424    -0.276143289
 C       -0.384633907     4.105552834    -0.272475310
 C       -1.740242554     4.322405374    -0.015319631
 C       -2.559092626     3.217764158     0.255829888
 C       -2.033692449     1.929173287     0.269064703
 C       -2.337865074     5.652304196    -0.000178372
 C       -1.676621225     6.800155425    -0.225379262
 C       -2.291476480     8.123610717    -0.206236839
 C       -1.489010381     9.244267056    -0.457860858
 C       -2.033861474    10.525447204    -0.449524944
 C       -3.393486775    10.716562260    -0.171828242
 C       -4.197080537     9.600914573     0.081203209
 C       -3.649999041     8.319103488     0.056651500
Si       -4.110503083    12.409524680    -0.161452048
 C       -5.935321391    12.318091349    -0.134809260
 C       -6.735177601    12.979189413     0.712175578
 C       -8.195291746    12.884992465     0.708431982
 C       -8.923432209    13.628489168     1.648250125
 C      -10.306786422    13.576756481     1.689391462
 C      -11.015982765    12.720077437     0.818838425
 C      -10.284114673    11.964940142    -0.119475653
 C       -8.900616157    12.067783099    -0.178526901
 N      -12.415034320    12.668616515     0.861369004
 C      -13.095008113    13.034042676     2.113770295
 C      -13.078441223    11.606869144     0.091389965
 C      -12.674394851    12.221193641     3.348829831
 C      -13.282521890    10.808964218     3.344103504
 N      -12.766445254     9.947311852     4.419066155
 C      -11.404046590     9.594250976     4.382344178
 C      -10.676943696     9.620715263     3.173923286
 C       -9.335396955     9.270631245     3.151189209
 C       -8.676649670     8.847021479     4.313616420
 C       -9.406041656     8.794763887     5.504756967
 C      -10.746981822     9.150525418     5.546584950
 C      -13.327264927    10.283156379     5.739313438
 C       -7.259058169     8.486924867     4.243752914
 C       -6.543546312     8.071591795     5.297561337
Si       -4.776905856     7.607770449     5.280710284
 C       -4.537073230     5.973255481     6.092741871
 C       -5.619543256     5.107450042     6.278884872
 C       -5.437332094     3.869343588     6.894089268
 C       -4.168957406     3.461425485     7.315712690
 C       -3.084367091     4.326771449     7.118835619
 C       -3.264642016     5.568420405     6.515497749
 C       -3.930431565     2.175832967     7.963449628
 C       -4.878367727     1.256346846     8.211919262
 C       -4.639052741    -0.028966694     8.859677130
 C       -3.372591269    -0.431597051     9.291408739
 C       -3.188720412    -1.669864554     9.906491426
 C       -4.268901897    -2.537313153    10.096144968
 C       -5.540131154    -2.136428102     9.663164407
 C       -5.721615347    -0.897111074     9.055787669
Si       -4.042277409    -4.174602547    10.906141429
 C       -2.241444731    -4.653142901    10.993866606
 C       -4.747474100    -4.106978481    12.672926068
 C       -5.019770968    -5.474186430     9.916398983
 C       -4.163699486     7.418532617     3.489409310
 C       -3.760535142     8.946491387     6.163462611
 C       -3.467740583    13.347393628     1.363698654
 C       -3.561272209    13.325959177    -1.734598687
 C       -0.614294757    -0.926804974    -1.544529698
 C       -0.663045453    -0.894796259     1.544329252
 H        1.207322808     2.704483815    -0.493247057
 H        0.273791401     4.946976388    -0.479022911
 H       -3.617044603     3.366379575     0.465484485
 H       -2.718077404     1.106839615     0.497262769
 H       -3.413252336     5.662358485     0.207824869
 H       -0.604604797     6.793695180    -0.440069943
 H       -0.429102170     9.114553962    -0.666928255
 H       -1.362371583    11.361276284    -0.664226044
 H       -5.264674360     9.692135344     0.307780181
 H       -4.299800325     7.465137849     0.244712076
 H       -6.353067377    11.662796057    -0.916345933
 H       -6.349713627    13.646663752     1.494770588
 H       -8.395267336    14.270471811     2.354730775
 H      -10.838097703    14.198832052     2.402900504
 H      -10.788048946    11.300583300    -0.812809223
 H       -8.360188812    11.483169890    -0.924832375
 H      -14.168067227    11.632544342     0.254473176
 H      -12.713855512    10.593882619     0.333506254
 H      -12.912999222    11.790971816    -0.987494387
 H      -14.374129695    10.612373183     5.637489789
 H      -12.764151139    11.072065061     6.264210545
 H      -13.340032109     9.373696819     6.367952785
 H      -11.150790553     9.937584768     2.249290855
 H       -8.788223859     9.329278584     2.208485998
 H       -8.920552346     8.466217531     6.425471749
 H      -11.275796210     9.086811643     6.491715462
 H       -6.834134965     8.591338659     3.236377587
 H       -7.002192308     7.990210394     6.296919207
 H       -6.633387520     5.369229936     5.959216666
 H       -6.296710733     3.217503847     7.038471856
 H       -2.088636026     4.027174376     7.439741491
 H       -2.382914559     6.203330711     6.390365035
 H       -2.889936448     1.993576861     8.248156622
 H       -5.918511372     1.438405961     7.926447261
 H       -2.514236881     0.222899350     9.150870674
 H       -2.174901829    -1.928366885    10.224298935
 H       -6.421212481    -2.772782886     9.784381943
 H       -6.716796956    -0.602725510     8.727940641
 H      -12.897623637    14.118742882     2.296158517
 H      -14.194522832    12.957573281     1.958715245
 H      -11.566437203    12.148336629     3.400231614
 H      -12.972563283    12.757816950     4.267906807
 H      -14.390255544    10.861676545     3.439326923
 H      -13.090938830    10.299481849     2.372028626
 H        2.263451822    -1.029882581     0.033109375
 H        2.261149981     0.536807215     0.881272904
 H        2.274593479     0.485642951    -0.902987322
 H       -2.116882198    -5.653149843    11.446278629
 H       -1.656583843    -3.939007212    11.599610937
 H       -1.791995062    -4.687073819     9.984750295
 H       -4.535931691    -5.118799026    13.125144882
 C       -4.057371344    -3.040839439    13.543523194
 C       -6.268142941    -3.873065722    12.720022745
 H       -6.099651853    -5.147998834     9.959763878
 C       -4.602297466    -5.524185716     8.435472623
 C       -4.932603669    -6.891576530    10.510011165
 H       -4.442055595     8.368346330     2.946932202
 C       -2.640957965     7.240032292     3.378919383
 C       -4.860517451     6.233399246     2.794019859
 H       -2.682191825     8.621938510     6.086426566
 C       -3.889640091    10.328773078     5.500071348
 C       -4.114073128     9.067631376     7.656576546
 H       -4.038571642    14.320493086     1.390401137
 C       -3.747364042    12.586072143     2.672233529
 C       -1.967072483    13.682420342     1.299375474
 H       -2.435132203    13.377701872    -1.686624044
 C       -3.946767178    12.572577245    -3.020101881
 C       -4.102205028    14.764236729    -1.813133373
 H       -0.129437682    -1.944844462    -1.501138531
 C       -2.139912103    -1.127986059    -1.578941911
 C       -0.177564571    -0.245660032    -2.854633728
 H       -1.785502441    -0.924928953     1.425129589
 C       -0.164554709    -2.344999602     1.674343155
 C       -0.349748576    -0.136977745     2.847058008
 H       -2.972719599    -3.183897774    13.630999007
 H       -4.455256391    -3.075571586    14.567841034
 H       -4.230025654    -2.017069039    13.181223898
 H       -6.844373111    -4.647799947    12.198790413
 H       -6.562899378    -2.897627255    12.307752291
 H       -6.617064567    -3.881623659    13.762959033
 H       -4.687756813    -4.552835876     7.927447655
 H       -5.252711744    -6.217442906     7.883491386
 H       -3.574703014    -5.883158539     8.291221863
 H       -5.282126575    -6.950140432    11.548861734
 H       -3.917722768    -7.309173662    10.474344329
 H       -5.567851824    -7.579367379     9.933155174
 H       -2.069961987     8.077269013     3.798272383
 H       -2.347727521     7.178836480     2.317861789
 H       -2.279408262     6.313237767     3.844601273
 H       -5.956851530     6.302768479     2.798533637
 H       -4.589001450     5.262887351     3.235708153
 H       -4.556509722     6.180509931     1.739724027
 H       -3.579793600    10.332306998     4.445513728
 H       -3.245506205    11.055602939     6.014030687
 H       -4.911052286    10.732655980     5.547542914
 H       -4.001457438     8.124209808     8.208724966
 H       -5.136511734     9.431750862     7.826214174
 H       -3.444741716     9.789919627     8.144872316
 H       -4.807991883    12.335921613     2.819075332
 H       -3.451761204    13.197840872     3.535917548
 H       -3.175006808    11.649266722     2.745187495
 H       -1.694438654    14.299131891     0.433746487
 H       -1.328628889    12.788117285     1.291327967
 H       -1.673176053    14.258202628     2.189225770
 H       -3.555762927    11.545995857    -3.056886774
 H       -3.532837869    13.089173027    -3.897871573
 H       -5.032846370    12.520909088    -3.176909773
 H       -3.796142545    15.391542549    -0.966021314
 H       -5.199002297    14.805708130    -1.878485970
 H       -3.721583053    15.260808249    -2.717158373
 H       -2.524893425    -1.689864348    -0.718481487
 H       -2.422215617    -1.704638203    -2.471795939
 H       -2.694207561    -0.180822761    -1.639798518
 H        0.910389734    -0.134896459    -2.947673264
 H       -0.626061743     0.749283923    -2.988169585
 H       -0.499702295    -0.846380317    -3.717195175
 H       -0.410641654    -2.969701170     0.806261069
 H       -0.637195874    -2.826725026     2.543021870
 H        0.918939316    -2.412133862     1.838731662
 H       -0.728167921     0.895766628     2.850346276
 H        0.723444876    -0.096777175     3.073813747
 H       -0.828401713    -0.639932677     3.700060736

