187   

Si        0.000000000     0.000000000     0.000000000
 C        1.865430421     0.000000000     0.000000000
 C       -0.677548105     1.711596658     0.000000000
 C        0.137299405     2.811506484     0.286065738
 C       -0.388010872     4.103612062     0.282903457
 C       -1.738418168     4.325281226     0.000916760
 C       -2.554549184     3.221731790    -0.281890903
 C       -2.032666641     1.931226902    -0.282332077
 C       -2.331502592     5.658401161    -0.013757338
 C       -1.662413029     6.796746313     0.236227150
 C       -2.255983443     8.129711798     0.221430877
 C       -3.607408801     8.349070437    -0.060987291
 C       -4.133880080     9.639937895    -0.064518223
 C       -3.314271474    10.741716770     0.203164337
 C       -1.959701388    10.526196969     0.485350948
 C       -1.439872531     9.234232477     0.498506250
Si       -3.999992274    12.449016826     0.200753316
 C       -2.651705560    13.653397853    -0.060946305
 C       -2.413316550    14.742759956     0.681147355
 C       -1.317623440    15.680426951     0.431522592
 C       -1.165398966    16.789031247     1.276884692
 C       -0.145164640    17.705210723     1.083210442
 C        0.802193372    17.512850480     0.052233650
 C        0.651361029    16.397721172    -0.795899098
 C       -0.405351355    15.515896561    -0.614578630
 N        1.827498872    18.447178641    -0.131310365
 C        2.375998876    19.121321491     1.055474329
 C        2.802798440    18.191704876    -1.198367506
 C        2.819550387    18.195116918     2.203261152
 C        4.158280060    17.474534008     1.965693928
 N        5.361769039    18.327968742     1.895436430
 C        5.662899774    18.832160742     0.604526724
 C        5.964145468    17.889160011    -0.399295126
 C        6.267465586    18.311854175    -1.682669309
 C        6.312553595    19.678214165    -2.000892437
 C        6.042210037    20.608564100    -0.994804321
 C        5.733815712    20.198868735     0.298321760
 C        5.475280567    19.285252550     3.005858737
 C        6.638648776    20.069420045    -3.374447963
 C        6.711073226    21.338536030    -3.795101282
Si        7.113144479    21.880833767    -5.494539128
 C        8.434722892    23.157967781    -5.447395261
 C        9.257364632    23.285547862    -4.323386784
 C       10.259886569    24.254192779    -4.287358023
 C       10.469436430    25.106273798    -5.375103885
 C        9.647831937    24.971453975    -6.502352123
 C        8.642527248    24.008938163    -6.540266730
 C       11.505860019    26.133508884    -5.381414293
 C       12.357623869    26.366698382    -4.368453944
 C       13.394335869    27.393573290    -4.373689624
 C       13.602361011    28.249747664    -5.458039165
 C       14.605855687    29.217890932    -5.420067431
 C       15.428578255    29.346196286    -4.296600611
 C       15.222367527    28.487902352    -3.207938962
 C       14.216644348    27.526351574    -3.246592134
Si       16.757288900    30.618844147    -4.231131135
 C       17.090776574    31.349339805    -5.914801736
 C       16.237210877    32.016737260    -3.048532159
 C       18.333834335    29.801691241    -3.545150412
 C        7.694528736    20.419446901    -6.563044318
 C        5.541444571    22.619673075    -6.271773266
 C       -5.255190049    12.627163263    -1.218703296
 C       -4.896632713    12.759377679     1.848767881
 C       -0.655976693    -0.902482583    -1.542418313
 C       -0.613462412    -0.924007959     1.546904674
 H        1.200904754     2.701085133     0.514640394
 H        0.268352694     4.942997117     0.505221927
 H       -3.609198539     3.372341300    -0.504458986
 H       -2.717373468     1.109979815    -0.512041618
 H       -3.399303341     5.681109323    -0.250153809
 H       -0.594567540     6.774093217     0.472915462
 H       -4.262834923     7.508261690    -0.279491209
 H       -5.198670097     9.749140310    -0.287641421
 H       -1.274632590    11.352109168     0.703695867
 H       -0.385758846     9.084431502     0.723985448
 H       -2.019153899    13.410850611    -0.931345299
 H       -3.028527192    15.017806436     1.547754494
 H       -1.870764937    16.944050227     2.093894770
 H       -0.080138425    18.576868103     1.727091507
 H        1.354412796    16.214922522    -1.601815622
 H       -0.508725679    14.669553873    -1.295991123
 H        3.517219174    19.033100635    -1.271069105
 H        2.276121346    18.138444928    -2.168979438
 H        3.384589361    17.266724896    -1.053320139
 H        5.381210797    18.736645906     3.959543457
 H        4.727070665    20.092905366     2.992355365
 H        6.483287944    19.737735406     2.989752349
 H        5.967246318    16.828584099    -0.154600790
 H        6.491151668    17.570848182    -2.450780359
 H        6.075777044    21.676469873    -1.216634159
 H        5.534732352    20.947742561     1.059116427
 H        6.825557839    19.212314874    -4.034451849
 H        6.510762920    22.177885876    -3.107677879
 H        9.144342837    22.641889007    -3.444926588
 H       10.883989817    24.338384123    -3.399436112
 H        9.795030868    25.625204226    -7.359879747
 H        8.031480373    23.951252084    -7.445187442
 H       11.553688026    26.729733924    -6.297310925
 H       12.310294553    25.769596522    -3.452906293
 H       12.978559332    28.167906156    -6.346187641
 H       14.720085023    29.858921261    -6.298598987
 H       15.835252485    28.541322700    -2.303601299
 H       14.071155502    26.869554539    -2.390995348
 H        3.224895636    19.769695300     0.738488907
 H        1.589714562    19.820818485     1.430550207
 H        2.866053447    18.780852773     3.140323567
 H        2.038867644    17.425247414     2.382476332
 H        4.335122001    16.753394072     2.800272092
 H        4.089607699    16.861265723     1.039527390
 H        2.263143358    -1.029813824    -0.040612105
 H        2.275232975     0.479001278     0.906425423
 H        2.261228270     0.543216674    -0.877336526
 H       17.916361985    32.082273308    -5.874246610
 H       16.204418394    31.869202451    -6.318571677
 H       17.379705341    30.564113297    -6.636874628
 H       17.066456365    32.780549864    -3.096073495
 C       14.930031431    32.703282408    -3.485118959
 C       16.090880053    31.563772503    -1.584818322
 H       18.066294492    29.431771492    -2.512692330
 C       18.777997486    28.586636835    -4.379503366
 C       19.518463093    30.774077955    -3.404752008
 H        6.893551303    19.629858886    -6.470785373
 C        7.843485787    20.772811473    -8.053559550
 C        9.021298057    19.819155771    -6.063064683
 H        5.822081351    22.908407651    -7.325974801
 C        4.378331624    21.615110358    -6.345769949
 C        5.064028913    23.888571136    -5.543396975
 H       -6.079253688    11.888064408    -1.000519949
 C       -5.881830382    14.030481457    -1.294193690
 C       -4.649967181    12.272857906    -2.588763802
 H       -5.205474228    13.844722579     1.834198005
 C       -6.165506120    11.905964905     2.023700964
 C       -3.980443070    12.537117198     3.066311452
 H       -1.780761452    -0.901854063    -1.446242962
 C       -0.295351506    -0.173316776    -2.849403023
 C       -0.192758147    -2.366857297    -1.640751175
 H       -0.121095745    -1.938649345     1.511166842
 C       -0.187690218    -0.232489584     2.855081852
 C       -2.137790815    -1.135573950     1.574887364
 H       14.977217613    33.129927081    -4.495293605
 H       14.699568236    33.539378196    -2.809307867
 H       14.061383719    32.030166548    -3.448459685
 H       17.011964413    31.139563292    -1.165540698
 H       15.285540883    30.829153787    -1.443919248
 H       15.833463337    32.424128293    -0.949796359
 H       17.996953040    27.819131631    -4.478164124
 H       19.634687151    28.092308365    -3.899580067
 H       19.105017519    28.857379711    -5.392180935
 H       19.299832005    31.635996670    -2.761186773
 H       19.873597847    31.158685099    -4.370023953
 H       20.374769133    30.258091546    -2.946362965
 H        6.909696156    21.117419129    -8.515663095
 H        8.154780356    19.883244582    -8.620632957
 H        8.613062497    21.535665637    -8.238192215
 H        8.992902752    19.500407773    -5.012242204
 H        9.869128313    20.511269582    -6.172114233
 H        9.276588763    18.925759370    -6.650146934
 H        4.616198065    20.715221306    -6.927395161
 H        3.511688782    22.078667457    -6.838817291
 H        4.029702902    21.289141326    -5.355213135
 H        5.832271785    24.672630765    -5.484716811
 H        4.712961077    23.689930039    -4.521614248
 H        4.213512494    24.332997670    -6.079996190
 H       -6.412907937    14.320065033    -0.378376900
 H       -6.623215867    14.068947194    -2.104907599
 H       -5.145071600    14.816736279    -1.514006807
 H       -4.216937461    11.263322472    -2.625854926
 H       -3.872249888    12.979964791    -2.908714446
 H       -5.429265498    12.300822751    -3.363475022
 H       -6.920574572    12.083916839     1.247527115
 H       -6.649721643    12.144974783     2.981722958
 H       -5.956075524    10.827247016     2.049172113
 H       -3.063816836    13.142173787     3.043142493
 H       -3.676826567    11.486755220     3.183793276
 H       -4.508125914    12.810130432     3.990793273
 H       -0.645531975     0.868594728    -2.875605859
 H       -0.767217750    -0.677045601    -3.704988376
 H        0.783663343    -0.164581700    -3.052709384
 H       -0.479026804    -2.972911629    -0.771510623
 H        0.892766497    -2.464757536    -1.774055284
 H       -0.653760547    -2.848066462    -2.515611087
 H        0.899160717    -0.115216854     2.953378011
 H       -0.511364600    -0.829814745     3.719512284
 H       -0.642309635     0.760851940     2.980339071
 H       -2.515273853    -1.701118992     0.713668604
 H       -2.698650993    -0.191986396     1.631896443
 H       -2.420148266    -1.712772084     2.467483964

