187   

Si        0.000000000     0.000000000     0.000000000
 C        1.863983464     0.000000000     0.000000000
 C       -0.660477632     1.717468406     0.000000000
 C        0.118272151     2.777255073     0.474879588
 C       -0.378559479     4.080162833     0.476569112
 C       -1.667914403     4.349881375     0.015679830
 C       -2.451571974     3.285801502    -0.452534956
 C       -1.956818166     1.984941517    -0.459077877
 C       -2.236461027     5.691505187    -0.004719672
 C       -1.620067560     6.814353365     0.402797731
 C       -2.243179555     8.134521091     0.357978234
 C       -3.544495900     8.315639168    -0.120809529
 C       -4.121473286     9.582017345    -0.155738035
 C       -3.395583053    10.705833586     0.256781011
 C       -2.092316417    10.532238781     0.735092679
 C       -1.530907787     9.257575391     0.797493541
Si       -4.205501802    12.352090017     0.189927006
 C       -3.022371430    13.707675301    -0.132770688
 C       -2.939041802    14.834000193     0.586676560
 C       -1.988442166    15.916712496     0.322758921
 C       -2.013084736    17.042339357     1.160220093
 C       -1.137947877    18.097522322     0.959314568
 C       -0.180053465    18.032188605    -0.069816166
 C       -0.142502482    16.906061992    -0.901557923
 C       -1.046061219    15.865693263    -0.707009481
 N        0.683564850    19.157938245    -0.212072136
 C        1.615033821    19.324337008     0.923507796
 C        1.349547333    19.282440529    -1.519971092
 C        2.741517730    18.274702987     0.972553739
 C        3.034031939    17.784739052     2.402799743
 N        2.305740834    16.569141169     2.796870837
 C        2.507079672    15.399913897     2.053006645
 C        3.645358249    15.259681507     1.229512982
 C        3.841213577    14.101736698     0.495160233
 C        2.956070239    13.019887788     0.592398270
 C        1.840690472    13.149288713     1.425944809
 C        1.609166894    14.315716881     2.141793561
 C        0.955285382    16.807356141     3.324786857
 C        3.223965170    11.827989769    -0.212107117
 C        2.464053061    10.725141911    -0.217422268
Si        2.800080071     9.233603070    -1.224753557
 C        2.717843956     7.765809412    -0.109392031
 C        1.989880699     7.813056097     1.086317835
 C        1.929774928     6.703644015     1.925890914
 C        2.614990609     5.524892553     1.605071082
 C        3.347470553     5.480276457     0.415589529
 C        3.395100516     6.585061108    -0.433239356
 C        2.523430461     4.387505248     2.514290244
 C        3.118857261     3.199365852     2.313831157
 C        3.027923839     2.061650780     3.222225268
 C        2.296403382     2.103679567     4.411831420
 C        2.236655220     0.991442848     5.251366108
 C        2.906604501    -0.189776631     4.916913582
 C        3.648847163    -0.231152582     3.729120783
 C        3.716302030     0.884389702     2.899368570
Si        2.835611579    -1.664672310     6.016419349
 C        1.394319620    -1.560733615     7.195387821
 C        2.682651000    -3.220768917     4.929535510
 C        4.453255229    -1.781028160     7.010936947
 C        1.491991257     9.053836511    -2.593496464
 C        4.504981398     9.394801627    -2.057300163
 C       -5.491247791    12.388419445    -1.214933741
 C       -5.104931014    12.617909998     1.846399360
 C       -0.664495611    -0.938915262    -1.514193259
 C       -0.601554682    -0.870885263     1.582543447
 H        1.134757097     2.627773048     0.854488998
 H        0.254207353     4.890311551     0.840887393
 H       -3.459472349     3.475249214    -0.815380850
 H       -2.613135449     1.196188992    -0.834957404
 H       -3.259370972     5.736059032    -0.394875838
 H       -0.597771991     6.789510978     0.792750207
 H       -4.125095792     7.462442145    -0.467332917
 H       -5.148312383     9.651430646    -0.526321062
 H       -1.483221145    11.378077295     1.068507870
 H       -0.521116746     9.135269827     1.186626215
 H       -2.362597881    13.530948489    -0.998489096
 H       -3.586850133    15.036717157     1.450053471
 H       -2.743131094    17.100104375     1.967386797
 H       -1.193325789    18.986176489     1.584507951
 H        0.597094992    16.826760834    -1.693465313
 H       -0.999783804    14.994423580    -1.362654387
 H        1.823934206    20.277424100    -1.578980599
 H        0.589337856    19.235770976    -2.319753835
 H        2.118219151    18.519644802    -1.718401222
 H        0.888541407    17.800214742     3.795850168
 H        0.739634274    16.060227479     4.111274697
 H        0.172016177    16.739672880     2.547985180
 H        4.376550310    16.057842588     1.155641939
 H        4.712750051    14.029814749    -0.156448292
 H        1.129327544    12.326175972     1.512725605
 H        0.722181887    14.382806565     2.763966782
 H        4.135558212    11.921958436    -0.817986241
 H        1.548376553    10.666106917     0.391773632
 H        1.458421474     8.714373808     1.406264834
 H        1.353062013     6.760298094     2.847622558
 H        3.886818948     4.576341854     0.139174347
 H        3.977016407     6.484377898    -1.354088374
 H        1.915019443     4.562152639     3.407146109
 H        3.729798531     3.025898646     1.422863932
 H        1.758682454     3.008267118     4.691461639
 H        1.646653082     1.083503289     6.167554425
 H        4.195475460    -1.125779000     3.418250623
 H        4.313272436     0.837887854     1.989897514
 H        2.042943438    20.349197913     0.854496297
 H        1.018585989    19.303670022     1.862647226
 H        2.472094249    17.405224723     0.335226095
 H        3.661413762    18.687126300     0.522095375
 H        4.124796147    17.571536985     2.515226492
 H        2.818069549    18.584702762     3.145529974
 H        2.265138839    -1.027436521    -0.040603507
 H        2.260011518     0.478638735     0.914972343
 H        2.261171207     0.551191954    -0.870791518
 H        1.320809926    -2.471853725     7.815601631
 H        0.440670515    -1.455222342     6.646488102
 H        1.485598093    -0.699694905     7.880333917
 H        3.616734426    -3.248796644     4.296277252
 C        2.624909882    -4.528206541     5.739531413
 C        1.472496015    -3.165596775     3.980498378
 H        4.329920196    -2.669815325     7.694888471
 C        5.694816534    -2.022746797     6.133762826
 C        4.700699237    -0.537483151     7.884466232
 H        1.818799142     8.163760366    -3.206716743
 C        0.079914972     8.765162696    -2.063536260
 C        1.431750718    10.283380282    -3.518393690
 H        4.526957550    10.441450567    -2.483314707
 C        5.661854809     9.267447917    -1.049495661
 C        4.752955012     8.423204214    -3.224734058
 H       -6.245403496    11.585561205    -0.971443572
 C       -6.241399449    13.728837575    -1.306661785
 C       -4.873966419    12.063875457    -2.586889094
 H       -5.542045522    13.656855385     1.803395085
 C       -6.259267669    11.625844185     2.073014656
 C       -4.147246165    12.546839429     3.050136369
 H       -1.788725452    -0.938822701    -1.412646028
 C       -0.311951270    -0.244154816    -2.842214554
 C       -0.199504692    -2.405410509    -1.576638990
 H       -0.050250099    -1.854102308     1.621871177
 C       -0.254188862    -0.072131107     2.850870706
 C       -2.111526710    -1.169177627     1.586387472
 H        3.493854382    -4.674251055     6.393952432
 H        2.606314348    -5.391211764     5.058147968
 H        1.722127056    -4.608349085     6.359536223
 H        1.474862936    -2.280420317     3.326026183
 H        0.510357819    -3.181288103     4.509330374
 H        1.473674724    -4.040151798     3.314899130
 H        5.640989520    -2.949408313     5.548520005
 H        6.589956175    -2.112360966     6.766576459
 H        5.894290337    -1.195295902     5.438209539
 H        3.892450892    -0.338650334     8.599936727
 H        4.854261413     0.376316394     7.292548460
 H        5.613343272    -0.672810806     8.482637089
 H        0.025016302     7.871813993    -1.424205522
 H       -0.608330963     8.576358220    -2.899804575
 H       -0.350964789     9.605444716    -1.499811473
 H        2.386659288    10.512726291    -4.007032894
 H        1.096477550    11.191866181    -2.996903920
 H        0.707698390    10.108151629    -4.327043329
 H        5.593449345     9.977082194    -0.212571524
 H        6.621461671     9.467515528    -1.545996556
 H        5.742378746     8.260936358    -0.615467999
 H        4.009463028     8.510677201    -4.027758158
 H        4.786495820     7.370620154    -2.915262439
 H        5.728158553     8.635289536    -3.686923873
 H       -6.784208756    13.987903489    -0.388558804
 H       -6.994541728    13.684593316    -2.106358976
 H       -5.581528196    14.573298271    -1.552679390
 H       -4.346486258    11.099811545    -2.612251426
 H       -4.172400035    12.835384059    -2.933360723
 H       -5.663285546    12.001547359    -3.349459650
 H       -7.045157704    11.690389505     1.309684055
 H       -6.749704709    11.832877374     3.035313720
 H       -5.923148837    10.580117707     2.121167546
 H       -3.306414747    13.251128961     2.986774149
 H       -3.724929699    11.542011416     3.197039023
 H       -4.686972786    12.790724066     3.975836944
 H       -0.661116525     0.797241111    -2.892520294
 H       -0.788400716    -0.769472970    -3.681694010
 H        0.765966988    -0.240852638    -3.051103340
 H       -0.474567169    -2.986326343    -0.686675591
 H        0.884675212    -2.504375755    -1.718866296
 H       -0.668943320    -2.911969462    -2.431965094
 H        0.820056780     0.143611035     2.957125906
 H       -0.539353078    -0.640167338     3.747409388
 H       -0.785424415     0.888394523     2.910760322
 H       -2.427902434    -1.822593980     0.764093356
 H       -2.726039375    -0.258809685     1.548562864
 H       -2.389072997    -1.687266149     2.515677371

