187   

Si        0.000000000     0.000000000     0.000000000
 C        1.865217955     0.000000000     0.000000000
 C       -0.676317424     1.712143287     0.000000000
 C        0.114535675     2.797739681    -0.389935704
 C       -0.405766602     4.091827663    -0.387019432
 C       -1.727792760     4.329631762    -0.002038623
 C       -2.520548615     3.240088195     0.382940426
 C       -2.003758995     1.947452279     0.382511953
 C       -2.314952740     5.665262041     0.016693438
 C       -1.666913032     6.791597858    -0.325866707
 C       -2.255734341     8.126618684    -0.306538430
 C       -1.464112902     9.217744250    -0.689748880
 C       -1.982848170    10.509819959    -0.687074739
 C       -3.311058077    10.739842425    -0.306473935
 C       -4.103361365     9.652866531     0.076814404
 C       -3.578199912     8.361067914     0.079602068
Si       -4.001136613    12.445105606    -0.301265541
 C       -5.826853917    12.375264931    -0.273229321
 C       -6.626165253    13.044449066     0.567801800
 C       -8.087418900    12.958395989     0.554527916
 C       -8.819552908    13.708187264     1.486950410
 C      -10.203230993    13.662046883     1.516240954
 C      -10.912886403    12.891017835     0.569786940
 C      -10.179387113    12.138795891    -0.366382445
 C       -8.790394088    12.160679679    -0.351809426
 N      -12.318423967    12.858762589     0.618341051
 C      -12.997798116    14.118174848     0.971331751
 C      -13.008393992    12.114393151    -0.447492121
 C      -12.635656344    15.298771665     0.046795855
 C      -13.758741044    16.350586430    -0.006170621
 N      -14.650814920    16.238643507    -1.183449988
 C      -15.272377135    14.965512416    -1.307028125
 C      -16.158432092    14.574992695    -0.283166924
 C      -16.795362607    13.346683267    -0.345517795
 C      -16.599341358    12.486239882    -1.437099977
 C      -15.739640045    12.889819946    -2.460836398
 C      -15.087207340    14.117367100    -2.407704747
 C      -14.026253524    16.763504104    -2.410957042
 C      -17.296841699    11.198121311    -1.454258497
 C      -17.184272944    10.301401371    -2.442203384
Si      -18.026630353     8.680628167    -2.521346972
 C      -18.849388225     8.486513329    -4.153663628
 C      -19.197104634     9.614993613    -4.906248702
 C      -19.820513703     9.471521663    -6.143252887
 C      -20.121481026     8.201289338    -6.651768881
 C      -19.778878636     7.077412339    -5.894238328
 C      -19.150384413     7.216690299    -4.657594963
 C      -20.775149597     8.102953014    -7.952662801
 C      -21.113086751     6.949815442    -8.554212421
 C      -21.766741501     6.851740905    -9.855095562
 C      -22.109678643     7.974159278   -10.613201620
 C      -22.733945863     7.834273262   -11.852621769
 C      -23.023114772     6.565466131   -12.364267614
 C      -22.679266756     5.437810389   -11.606264569
 C      -22.061300468     5.580865822   -10.367101403
Si      -23.846603020     6.363590625   -13.998321095
 C      -23.853360048     7.958523605   -14.965532879
 C      -22.924467956     5.009903005   -14.968143358
 C      -25.645857985     5.800491725   -13.735647604
 C      -16.713047605     7.322302628    -2.296133093
 C      -19.326400670     8.506382172    -1.145114031
 C       -3.325456240    13.388970627     1.205149971
 C       -3.454846623    13.347335903    -1.885506754
 C       -0.622190822    -0.915556101    -1.548288549
 C       -0.652286250    -0.911531741     1.538933451
 H        1.155467261     2.674440748    -0.701297504
 H        0.232060954     4.920081013    -0.690237193
 H       -3.553115319     3.403141081     0.686133104
 H       -2.669944298     1.137561917     0.692648279
 H       -3.359560218     5.700886451     0.340081462
 H       -0.622517525     6.756535897    -0.649154120
 H       -0.431611949     9.056378742    -0.992942001
 H       -1.318531578    11.322101581    -0.994293959
 H       -5.146472239     9.775589054     0.387025392
 H       -4.213133812     7.531458669     0.385244485
 H       -6.247285503    11.714629549    -1.049954193
 H       -6.240653871    13.716296501     1.345902948
 H       -8.292641465    14.329746364     2.211426271
 H      -10.741198253    14.223666210     2.274452786
 H      -10.685744263    11.529171861    -1.108070884
 H       -8.245995716    11.554570609    -1.077912989
 H      -14.099489454    12.123429590    -0.264368724
 H      -12.689905469    11.057173324    -0.420954540
 H      -12.835881789    12.522303300    -1.456445513
 H      -13.772171916    17.826094242    -2.249311971
 H      -14.757566010    16.731593734    -3.237579237
 H      -13.113391637    16.231955112    -2.721657359
 H      -16.346684768    15.249619468     0.549531514
 H      -17.469518159    13.052605328     0.459373506
 H      -15.575426482    12.241320194    -3.323073704
 H      -14.422500503    14.398711344    -3.219370776
 H      -17.930291392    11.036741053    -0.572532180
 H      -16.534008547    10.492723068    -3.312972739
 H      -18.991370249    10.631854879    -4.556235439
 H      -20.078671380    10.359128388    -6.717998091
 H      -20.001839807     6.079323835    -6.266560539
 H      -18.905258110     6.301791500    -4.111184235
 H      -20.984616456     9.063315568    -8.432995120
 H      -20.903901700     5.989313675    -8.074129913
 H      -21.891958638     8.973039061   -10.239379789
 H      -22.979023282     8.749326451   -12.398919038
 H      -22.880055312     4.421137557   -11.955850868
 H      -21.803231978     4.693266466    -9.792561475
 H      -14.097094972    13.932554571     0.956495172
 H      -12.750881748    14.364252995     2.028617008
 H      -11.690361898    15.761287178     0.386377483
 H      -12.416584015    14.923419391    -0.971534638
 H      -14.394357235    16.296230080     0.905935777
 H      -13.324052565    17.375301684    -0.006197176
 H        2.263085323    -1.028803933     0.059581530
 H        2.260109120     0.559604363     0.867565291
 H        2.275950331     0.462708658    -0.914308192
 H      -24.307941190     7.817394769   -15.962438053
 H      -22.824998622     8.332666211   -15.120292040
 H      -24.425619171     8.748520090   -14.448332983
 H      -23.005705651     4.072650344   -14.344116900
 C      -23.542343246     4.712917415   -16.346042422
 C      -21.428912116     5.327939480   -15.146981317
 H      -26.105032962     5.758372794   -14.765510897
 C      -25.769822095     4.403424497   -13.101759056
 C      -26.458660863     6.798847050   -12.890969248
 H      -17.272757668     6.342687165    -2.312394228
 C      -15.684942726     7.300943202    -3.441245153
 C      -15.967543037     7.423482876    -0.953844885
 H      -18.787145164     8.724076955    -0.177980390
 C      -20.477845035     9.517511144    -1.293161255
 C      -19.922190661     7.090467288    -1.048217863
 H       -3.857526930    14.384186636     1.210460752
 C       -3.632354820    12.671592043     2.532432326
 C       -1.812249924    13.661010292     1.130170409
 H       -2.328199438    13.392324458    -1.845383038
 C       -3.854147905    12.587579912    -3.163049374
 C       -3.986827388    14.788671286    -1.970818225
 H       -0.139972400    -1.935022919    -1.516393762
 C       -2.148923835    -1.110213239    -1.571506899
 C       -0.192810814    -0.225126462    -2.855813240
 H       -1.776918700    -0.919001600     1.441451815
 C       -0.179457747    -2.373248561     1.632782790
 C       -0.297967838    -0.184818269     2.848991881
 H      -24.595860909     4.409161334   -16.294027579
 H      -23.006436191     3.881006455   -16.825923009
 H      -23.472849805     5.562047865   -17.038791251
 H      -20.904913074     5.499689634   -14.195781967
 H      -21.249360822     6.202676385   -15.785988567
 H      -20.918798286     4.482241248   -15.629839457
 H      -25.282397217     3.613683961   -13.687221413
 H      -26.829511931     4.118591548   -13.026559696
 H      -25.369546424     4.362172993   -12.078935975
 H      -26.492341301     7.808258060   -13.320663260
 H      -26.086642183     6.888281886   -11.860106383
 H      -27.502875154     6.463642250   -12.812848063
 H      -16.141444974     7.193734618    -4.435430806
 H      -15.007054508     6.443517461    -3.322396221
 H      -15.048551186     8.196177913    -3.462567774
 H      -16.630736500     7.358617658    -0.081591086
 H      -15.380237647     8.348057659    -0.857918560
 H      -15.252816123     6.593487181    -0.857311815
 H      -20.144337024    10.563481738    -1.328535397
 H      -21.161145815     9.439891645    -0.435715713
 H      -21.088839165     9.338112340    -2.189906988
 H      -19.174236407     6.316010658    -0.835890851
 H      -20.468305149     6.792242872    -1.954427950
 H      -20.650726388     7.045363059    -0.225419455
 H       -4.701818283    12.474614599     2.689292218
 H       -3.303825885    13.288742748     3.380318382
 H       -3.105759107    11.710926333     2.628512804
 H       -1.518130344    14.252154974     0.253755424
 H       -1.211616253    12.740534348     1.133572573
 H       -1.490783519    14.237512407     2.009864185
 H       -3.472877726    11.557038928    -3.193794075
 H       -3.440980773    13.093516076    -4.047133822
 H       -4.941623681    12.544068851    -3.312952956
 H       -3.665819289    15.421295236    -1.133305624
 H       -5.084019513    14.837225389    -2.022803628
 H       -3.614037086    15.274257839    -2.883887105
 H       -2.527861109    -1.684612288    -0.716751943
 H       -2.442306105    -1.670719161    -2.471082004
 H       -2.700186738    -0.159931372    -1.610549148
 H        0.894913676    -0.119292047    -2.956779799
 H       -0.637599470     0.773113287    -2.977324629
 H       -0.525114808    -0.816787060    -3.720853593
 H       -0.457910251    -2.977364004     0.759698299
 H       -0.640913801    -2.861458061     2.503522662
 H        0.906144639    -2.464328224     1.770214688
 H       -0.654019474     0.855007259     2.878525913
 H        0.780786841    -0.170366172     3.053664999
 H       -0.767823606    -0.694642102     3.702084837

