187   

Si        0.000000000     0.000000000     0.000000000
 C        1.864859311     0.000000000     0.000000000
 C       -0.682809051     1.709662795     0.000000000
 C        0.063577968     2.780877121     0.502108438
 C       -0.459922381     4.073746359     0.499050461
 C       -1.740865001     4.324291000     0.000248288
 C       -2.489835846     3.249120155    -0.496298368
 C       -1.970497097     1.957585131    -0.493643916
 C       -2.332235692     5.657760936    -0.024629619
 C       -1.730256182     6.774700071     0.418033269
 C       -2.330677893     8.104529893     0.388718309
 C       -3.613592278     8.338301593    -0.113745770
 C       -4.151969332     9.624776095    -0.124166142
 C       -3.423284546    10.703362939     0.385161975
 C       -2.137644891    10.472095462     0.893657612
 C       -1.598255984     9.188912421     0.890175183
Si       -4.106177403    12.410191707     0.385121091
 C       -3.591912480    13.337910085     1.877040823
 C       -3.348704959    12.744477960     3.053079532
 C       -2.935854619    13.448027222     4.269576927
 C       -2.716544106    12.691701426     5.430887767
 C       -2.324623432    13.301618978     6.612135289
 C       -2.146995414    14.694939965     6.654837841
 C       -2.378210644    15.458427446     5.505616489
 C       -2.782156739    14.835383112     4.328289935
 N       -1.741120568    15.238418070     7.917029036
 C       -0.293166403    15.046637605     8.162413259
 C       -2.187258742    16.621840135     8.159278239
 C        0.628434663    15.926128269     7.295257295
 C        1.839561463    15.167984109     6.720863010
 N        1.591276962    14.416899995     5.475375874
 C        1.008608363    15.112027787     4.402470456
 C        1.205920502    16.503501177     4.265711315
 C        0.633316726    17.193063340     3.209358772
 C       -0.102316655    16.526996848     2.220120168
 C       -0.262116351    15.142979126     2.333149960
 C        0.290031651    14.438945444     3.394210239
 C        1.126532812    13.037836728     5.698403629
 C       -0.682153911    17.311113610     1.130074844
 C       -1.404119245    16.794741394     0.126666354
Si       -2.122945449    17.787216989    -1.229502917
 C       -1.124756921    19.281953474    -1.612703357
 C        0.261916609    19.265227003    -1.423815940
 C        1.029645206    20.392691272    -1.710904876
 C        0.432974173    21.555599732    -2.206319372
 C       -0.953981487    21.567040111    -2.403472763
 C       -1.724554464    20.443972297    -2.112537493
 C        1.196105335    22.758927079    -2.520799971
 C        2.526816020    22.880117583    -2.377855413
 C        3.289926623    24.083427569    -2.692332804
 C        2.693228682    25.247765143    -3.182555550
 C        3.461107676    26.376183626    -3.470182192
 C        4.844285099    26.366519959    -3.265252179
 C        5.445083228    25.200182290    -2.772073476
 C        4.677021410    24.073532263    -2.492179950
Si        5.872004800    27.847133720    -3.639711956
 C        4.817383879    29.357105639    -3.936081584
 C        7.046827935    28.142482365    -2.171283977
 C        6.917402511    27.519127850    -5.196253166
 C       -2.201687230    16.694785954    -2.785329211
 C       -3.894501692    18.273680533    -0.733140720
 C       -3.411833506    13.317749109    -1.136772610
 C       -6.003416040    12.400983528     0.297426945
 C       -0.644114878    -0.923061266    -1.536077386
 C       -0.627052240    -0.910522243     1.549412902
 H        1.071820723     2.646643856     0.903599095
 H        0.142506361     4.890913264     0.891462881
 H       -3.490323062     3.422221525    -0.888393707
 H       -2.603012396     1.159217187    -0.891713540
 H       -3.342069106     5.700427388    -0.444171761
 H       -0.720941184     6.735743343     0.837223474
 H       -4.204894829     7.513608592    -0.507499961
 H       -5.156640288     9.745448292    -0.538456110
 H       -1.522427211    11.280316832     1.304923648
 H       -0.596662960     9.028031852     1.284584572
 H       -3.513009860    14.428935686     1.754140980
 H       -3.431328016    11.656898039     3.196524084
 H       -2.857309570    11.610861656     5.407679709
 H       -2.171142608    12.716154569     7.516856461
 H       -2.241503026    16.536493868     5.520278879
 H       -2.956308243    15.445252526     3.439755895
 H       -2.011862144    16.862228171     9.222206573
 H       -3.275471819    16.685740751     7.982550920
 H       -1.687870874    17.385337120     7.544051716
 H        1.611603557    12.608301288     6.589069462
 H        1.427950445    12.413274903     4.837085012
 H        0.031400748    12.961284406     5.824612883
 H        1.806987855    17.046347809     4.988491002
 H        0.776111881    18.272517413     3.141368154
 H       -0.831016042    14.595696486     1.578411515
 H        0.134189587    13.365246257     3.445967046
 H       -0.460137802    18.385180188     1.208757528
 H       -1.621823926    15.716643738     0.072753844
 H        0.785265486    18.380168924    -1.045330875
 H        2.105412833    20.357356333    -1.548012321
 H       -1.438157097    22.462052554    -2.789163199
 H       -2.801744008    20.512622543    -2.286053405
 H        0.598226010    23.594321209    -2.896632604
 H        3.124657812    22.044100701    -2.002811681
 H        1.617789757    25.282953357    -3.346608385
 H        2.937846425    27.256497113    -3.853497975
 H        6.521774550    25.134812694    -2.591258274
 H        5.161841897    23.176345776    -2.111795324
 H       -0.115291073    15.248858335     9.241901370
 H       -0.065066565    13.968592965     8.009388359
 H        0.043213027    16.367968069     6.461010998
 H        0.984830625    16.789737698     7.885397799
 H        2.662076488    15.892553978     6.503666979
 H        2.254966521    14.470716882     7.481391130
 H        2.262437111    -1.029509366    -0.048388793
 H        2.277023849     0.473430336     0.908087689
 H        2.259004564     0.550185310    -0.874054043
 H        5.442428427    30.250285719    -4.114650729
 H        4.176126970    29.570699719    -3.061729579
 H        4.159799882    29.230812389    -4.813927119
 H        7.678817081    27.210702967    -2.088723806
 C        7.994397087    29.338214763    -2.373672261
 C        6.293060419    28.318952205    -0.840650517
 H        7.467908972    28.482608532    -5.401237076
 C        7.962067291    26.403200807    -5.016522251
 C        6.053621602    27.191412983    -6.427989975
 H       -2.768952601    15.764564058    -2.487512733
 C       -2.952486066    17.354524472    -3.954278615
 C       -0.802636008    16.269439983    -3.265596254
 H       -4.317596089    18.847709054    -1.606825323
 C       -4.808782779    17.062802846    -0.473188251
 C       -3.920079058    19.192303576     0.501639006
 H       -3.680405306    14.404582867    -0.992324868
 C       -1.880351067    13.201028305    -1.231422372
 C       -4.026795286    12.849132399    -2.466304334
 H       -6.271022082    11.857348630    -0.654322301
 C       -6.639884918    11.642900583     1.476038566
 C       -6.613318773    13.812589332     0.225412765
 H       -1.769111495    -0.933312100    -1.443912511
 C       -0.284525662    -0.205208849    -2.849547240
 C       -0.167657469    -2.384395414    -1.617809401
 H       -0.154753793    -1.934532925     1.517066885
 C       -0.189742850    -0.224258437     2.856466079
 C       -2.155698940    -1.089286911     1.572699465
 H        8.619559539    29.250594001    -3.271656896
 H        8.687533313    29.415711536    -1.523306403
 H        7.465756933    30.299188546    -2.426530222
 H        5.636572615    27.470846595    -0.598551508
 H        5.680646064    29.229854652    -0.811262678
 H        7.008390536    28.400106932    -0.009810214
 H        8.672165231    26.597075244    -4.202719750
 H        8.564692319    26.303021907    -5.931144635
 H        7.507642038    25.417857173    -4.841456890
 H        5.331688017    27.979546371    -6.677567922
 H        5.494593311    26.250779036    -6.319271492
 H        6.692412105    27.068521128    -7.314381895
 H       -3.997855010    17.593245826    -3.720948573
 H       -2.978300411    16.673383349    -4.817225642
 H       -2.469479872    18.276191323    -4.308982192
 H       -0.210044201    15.759242683    -2.493373091
 H       -0.203754560    17.115167395    -3.633983591
 H       -0.888876697    15.566845464    -4.106362549
 H       -4.908363937    16.400478889    -1.342892624
 H       -5.825375767    17.405315186    -0.231951962
 H       -4.479350449    16.455102048     0.381988983
 H       -3.338971286    20.115496225     0.370443283
 H       -3.550276783    18.696128783     1.411125773
 H       -4.950168873    19.507989449     0.717602500
 H       -1.353339022    13.551699982    -0.333591997
 H       -1.505215509    13.809401696    -2.068373084
 H       -1.543209373    12.173237668    -1.429623031
 H       -5.113754497    12.989572400    -2.518721928
 H       -3.815777417    11.793895422    -2.688748040
 H       -3.602616051    13.426285879    -3.301359981
 H       -6.298348821    10.602419602     1.564312973
 H       -7.731018928    11.598085165     1.351699587
 H       -6.460448269    12.131517514     2.445040777
 H       -6.259454478    14.397935866    -0.633385650
 H       -6.430136323    14.403152613     1.134384595
 H       -7.705623395    13.744553409     0.120673612
 H       -0.639504525     0.834571705    -2.888135705
 H       -0.750520583    -0.720806336    -3.701283766
 H        0.795195494    -0.192658701    -3.049727705
 H       -0.451502513    -2.984054491    -0.743358375
 H        0.919072206    -2.474344572    -1.746819225
 H       -0.621741724    -2.878556876    -2.489084100
 H        0.899123342    -0.130327322     2.956820861
 H       -0.527931576    -0.812475162     3.721683758
 H       -0.624260215     0.778410073     2.978209283
 H       -2.540199288    -1.662144107     0.719348453
 H       -2.697328556    -0.133256902     1.607824844
 H       -2.455591157    -1.644070187     2.473663170

