187   

Si        0.000000000     0.000000000     0.000000000
 C        1.864954720     0.000000000     0.000000000
 C       -0.681507447     1.709756658     0.000000000
 C        0.131404850     2.813675735    -0.275246243
 C       -0.399036777     4.103816343    -0.271688995
 C       -1.750868118     4.317849091     0.006307038
 C       -2.565379782     3.210441214     0.279912184
 C       -2.039437813     1.922190030     0.275167318
 C       -2.352526594     5.645597290     0.022205860
 C       -1.697447914     6.793549195    -0.222013865
 C       -2.324666867     8.110917149    -0.199596470
 C       -1.549563183     9.245476133    -0.468989465
 C       -2.120810050    10.516476546    -0.454801086
 C       -3.486665713    10.678842606    -0.192087860
 C       -4.260790550     9.546019057     0.083518517
 C       -3.680326932     8.280275586     0.095671240
Si       -4.260982801    12.348517560    -0.168628608
 C       -5.784105084    12.373266814     0.839656028
 C       -6.004081172    11.586986827     1.901418547
 C       -7.228932718    11.615984020     2.701703678
 C       -7.336782613    10.738696110     3.792685932
 C       -8.473587881    10.725603199     4.581846058
 C       -9.552614362    11.579532350     4.278785897
 C       -9.449845961    12.457539714     3.191902666
 C       -8.289508533    12.479547621     2.424210602
 N      -10.687502098    11.511018424     5.133945457
 C      -11.393195916    10.214909364     5.091402507
 C      -11.590154218    12.672761596     5.089433555
 C      -12.291573828     9.973975695     3.861887129
 C      -11.504201847     9.632595273     2.586035231
 N      -10.652878702     8.427651829     2.750123479
 C       -9.915191568     8.139771527     1.538535828
 C      -10.519870962     8.029715650     0.279876408
 C       -9.743285204     7.751086742    -0.836610998
 C       -8.357220228     7.569523479    -0.721773318
 C       -7.764078900     7.687684145     0.539466790
 C       -8.531666056     7.980108027     1.663330215
 C      -11.418429752     7.226118527     3.156549504
 C       -7.600201522     7.277902709    -1.943711845
 C       -6.276519535     7.080594301    -1.993688042
Si       -5.356500145     6.717475323    -3.536850543
 C       -6.163590437     7.488019294    -4.997409273
 C       -6.788779445     8.735019513    -4.859451162
 C       -7.406729256     9.339003131    -5.950365140
 C       -7.402953539     8.721337254    -7.208252479
 C       -6.770828363     7.482581867    -7.344814177
 C       -6.155557611     6.871832859    -6.252157313
 C       -8.064190077     9.393920516    -8.321434015
 C       -8.138757703     8.910924219    -9.573254610
 C       -8.800433354     9.584730282   -10.685611130
 C       -9.432369273    10.823353621   -10.548608985
 C      -10.053117476    11.432080939   -11.639323613
 C      -10.047996315    10.817089332   -12.895096139
 C       -9.413919355     9.575135140   -13.035565803
 C       -8.801173222     8.966955812   -11.943562968
Si      -10.862684582    11.607464932   -14.344281816
 C      -11.290948866    13.390764923   -14.002880686
 C       -9.680942736    11.488777453   -15.831981181
 C      -12.461593243    10.664598680   -14.765851623
 C       -3.581545974     7.383111787    -3.405438056
 C       -5.262160621     4.825904530    -3.721660548
 C       -3.027934430    13.640781228     0.474369192
 C       -4.768974370    12.790213780    -1.950266540
 C       -0.614867743    -0.914314089    -1.552682469
 C       -0.658283193    -0.907248646     1.538397414
 H        1.196823104     2.707484384    -0.496928470
 H        0.254615332     4.946754736    -0.488245387
 H       -3.622087206     3.356265165     0.498368099
 H       -2.722261305     1.096756351     0.496100509
 H       -3.423008009     5.655064182     0.254340120
 H       -0.630493391     6.792392223    -0.457028768
 H       -0.489946558     9.137555380    -0.689723660
 H       -1.465559966    11.366609600    -0.662048347
 H       -5.337790431     9.610646427     0.283313133
 H       -4.293105303     7.415360056     0.347252771
 H       -6.533037854    13.111266157     0.512783701
 H       -5.270226608    10.852579757     2.262526807
 H       -6.514920420    10.061697828     4.025857670
 H       -8.546417589    10.051546757     5.433025419
 H      -10.269045400    13.122076495     2.937404410
 H       -8.224642754    13.172375012     1.585139840
 H      -12.329315226    12.578796864     5.903285330
 H      -12.132881863    12.798477232     4.139909233
 H      -11.005020987    13.589425715     5.282995052
 H      -11.751687448     7.355807157     4.198816698
 H      -10.751971483     6.346904528     3.135609789
 H      -12.292526931     7.012788047     2.524697397
 H      -11.594395209     8.155015362     0.176398276
 H      -10.221367076     7.670963411    -1.812596590
 H       -6.687831777     7.560408955     0.650236808
 H       -8.068636507     8.095004658     2.643654158
 H       -8.234564648     7.248430208    -2.841578503
 H       -5.661647000     7.105569517    -1.081966641
 H       -6.817174246     9.267303699    -3.901712828
 H       -7.894900387    10.303204757    -5.823433080
 H       -6.752832753     6.982382410    -8.311028690
 H       -5.677067440     5.903369175    -6.420197436
 H       -8.516901621    10.357551101    -8.069629234
 H       -7.686314202     7.947579617    -9.825981082
 H       -9.446300316    11.325530921    -9.583018859
 H      -10.532842416    12.399915660   -11.469530653
 H       -9.377516432     9.047968711   -13.993079076
 H       -8.315798587     8.001286174   -12.071705467
 H      -10.633106294     9.398528935     5.152790315
 H      -12.005642156    10.150367299     6.018909613
 H      -13.005725812     9.161496164     4.094088586
 H      -12.916047449    10.865647764     3.664278049
 H      -12.217553647     9.541437076     1.737826862
 H      -10.812084792    10.473334694     2.336348186
 H        2.262703342    -1.029800750     0.043622823
 H        2.261560006     0.545742652     0.875435096
 H        2.274565346     0.476044047    -0.908090253
 H      -11.738325422    13.869666078   -14.892129013
 H      -10.389210379    13.969831003   -13.732686801
 H      -12.014388075    13.486658791   -13.174423971
 H       -9.508830850    10.386162269   -16.002473224
 C      -10.263477623    12.080487062   -17.127770327
 C       -8.314628535    12.140601949   -15.552417093
 H      -12.934141821    11.232975863   -15.618421276
 C      -12.220608851     9.218391361   -15.234477990
 C      -13.460332761    10.642739888   -13.594256815
 H       -3.190235346     7.030843666    -2.404558713
 C       -2.641808285     6.841459707    -4.496287259
 C       -3.530705622     8.919124612    -3.423248466
 H       -4.659409852     4.634500357    -4.656038404
 C       -4.544412520     4.141191472    -2.544851885
 C       -6.647532086     4.181337628    -3.905386083
 H       -2.169234285    13.647401419    -0.257634820
 C       -3.613721716    15.063026052     0.529922932
 C       -2.470329105    13.275337430     1.861884221
 H       -5.160806220    13.846858600    -1.906803817
 C       -3.596337393    12.755206490    -2.944623265
 C       -5.897253369    11.882359312    -2.473303917
 H       -0.113726013    -1.924844648    -1.529490736
 C       -2.137497002    -1.137971766    -1.575889717
 C       -0.202025089    -0.205102680    -2.855617624
 H       -1.782765600    -0.909954263     1.438275730
 C       -0.190377927    -2.370170966     1.634705035
 C       -0.304493744    -0.179487126     2.847956165
 H      -11.210053663    11.615098201   -17.431417617
 H       -9.562788637    11.922446212   -17.960575300
 H      -10.427911117    13.164483557   -17.067329630
 H       -7.808535742    11.724912331   -14.669203596
 H       -8.377400546    13.228328249   -15.416042297
 H       -7.636472424    11.973915556   -16.401434866
 H      -11.583009031     9.149229514   -16.124861589
 H      -13.176874771     8.747634397   -15.505563514
 H      -11.779533601     8.584274304   -14.452484699
 H      -13.748566810    11.643173343   -13.246864041
 H      -13.085345972    10.083876982   -12.724638269
 H      -14.391041320    10.144771387   -13.901702650
 H       -2.532704185     5.749487295    -4.472774572
 H       -1.630846152     7.250782820    -4.352822579
 H       -2.948147952     7.130026396    -5.510794048
 H       -4.119209375     9.378246750    -2.614000620
 H       -3.865013574     9.352715112    -4.374821036
 H       -2.497284871     9.263252062    -3.268831715
 H       -3.525352781     4.516665339    -2.371720428
 H       -4.438744380     3.065005576    -2.743140477
 H       -5.096723135     4.228033997    -1.599660989
 H       -7.200115593     4.572157446    -4.770589792
 H       -7.293184475     4.296829913    -3.023062855
 H       -6.541886445     3.100088727    -4.070651040
 H       -3.965733901    15.428348318    -0.443142931
 H       -2.843608066    15.773732533     0.863203644
 H       -4.444598416    15.155081966     1.243726182
 H       -1.979307262    12.292726273     1.890162928
 H       -3.240205727    13.282741098     2.647116394
 H       -1.710477105    14.007733772     2.168983421
 H       -2.776764208    13.434302168    -2.679591460
 H       -3.940250309    13.064937375    -3.942502034
 H       -3.170665645    11.748284115    -3.067951295
 H       -6.801793686    11.904438386    -1.849702778
 H       -5.591039096    10.829551222    -2.568816008
 H       -6.205164343    12.205373961    -3.477778035
 H       -2.506757810    -1.714300661    -0.718204884
 H       -2.418682095    -1.710106116    -2.472185040
 H       -2.706294081    -0.198631814    -1.622553026
 H        0.883006456    -0.074581513    -2.957245030
 H       -0.668406435     0.784152897    -2.969307541
 H       -0.521955461    -0.797853756    -3.724630278
 H       -0.467639397    -2.974082504     0.761034218
 H       -0.656309789    -2.856498955     2.504226386
 H        0.894524069    -2.464365201     1.776015978
 H       -0.658221489     0.861070242     2.875501624
 H        0.773864960    -0.167683089     3.055002202
 H       -0.777573624    -0.686888130     3.700837963

