187   

Si        0.000000000     0.000000000     0.000000000
 C        1.865178206     0.000000000     0.000000000
 C       -0.668396383     1.715737903     0.000000000
 C        0.094965581     2.777074844    -0.497908484
 C       -0.411362436     4.076374934    -0.497839760
 C       -1.691720437     4.344260359    -0.006135562
 C       -2.457554882     3.279318746     0.486192102
 C       -1.955284795     1.980739169     0.486395286
 C       -2.261821577     5.687128902     0.013501134
 C       -1.634597362     6.790292415    -0.428439208
 C       -2.205244255     8.132631633    -0.408488105
 C       -1.439972202     9.196997417    -0.901828957
 C       -1.943319864    10.495616388    -0.902895425
 C       -3.224714868    10.759630831    -0.406728950
 C       -3.989414673     9.698989275     0.093154537
 C       -3.481200146     8.400970244     0.095991684
Si       -3.928398937    12.458418901    -0.389082314
 C       -5.629221866    12.365819680    -1.047043069
 C       -6.731164802    12.880151513    -0.486534538
 C       -8.067045318    12.765779604    -1.074865410
 C       -9.159650247    13.339783708    -0.409090459
 C      -10.440185802    13.254612659    -0.931016155
 C      -10.669950933    12.580291296    -2.148564318
 C       -9.583606282    11.970445247    -2.793874805
 C       -8.311314393    12.033683108    -2.239156468
 N      -11.992856166    12.514693238    -2.649574336
 C      -12.717200624    13.806514940    -2.654120294
 C      -12.174266739    11.747605930    -3.894009945
 C      -11.931841578    15.009157658    -3.213059650
 C      -12.051055952    15.161433558    -4.742444333
 N      -10.800958420    15.576011623    -5.421705342
 C       -9.832054410    14.525924235    -5.463887460
 C      -10.098693259    13.467003961    -6.350917513
 C       -9.210156955    12.409096613    -6.452884488
 C       -8.032439886    12.380742955    -5.689827256
 C       -7.761710449    13.450164437    -4.832532109
 C       -8.638935311    14.526595557    -4.732083383
 C      -10.295776117    16.874079669    -4.942046042
 C       -7.135704087    11.233480272    -5.844771970
 C       -5.980965215    11.069623775    -5.185554256
Si       -4.899935766     9.609421811    -5.422787708
 C       -5.031448680     8.923194614    -7.123395379
 C       -5.282866821     9.777554368    -8.205147503
 C       -5.384681820     9.270379648    -9.497603184
 C       -5.226443498     7.900258082    -9.744227402
 C       -4.966351720     7.051301501    -8.665007226
 C       -4.866202927     7.556408217    -7.369114749
 C       -5.342039005     7.416123528   -11.115810452
 C       -5.214616869     6.130966887   -11.487092961
 C       -5.330278966     5.647157420   -12.858840773
 C       -5.590299781     6.495378486   -13.938288223
 C       -5.692909899     5.989897647   -15.234206475
 C       -5.532101649     4.622594264   -15.479200113
 C       -5.270828044     3.769537068   -14.398330432
 C       -5.173632969     4.276424633   -13.105487816
Si       -5.664436204     3.939522145   -17.183366505
 C       -5.641179191     5.290996379   -18.468980097
 C       -4.211211341     2.741809520   -17.460696269
 C       -7.291720613     2.966146878   -17.351404313
 C       -3.108182783    10.069570873    -5.004658612
 C       -5.474701241     8.277050591    -4.185880567
 C       -3.890090537    13.128800617     1.389250608
 C       -2.935960203    13.649130890    -1.493540357
 C       -0.630045211    -0.906179055    -1.550351860
 C       -0.649942565    -0.918903831     1.535449435
 H        1.103530478     2.629975164    -0.894289677
 H        0.204278279     4.885052875    -0.887614613
 H       -3.457982760     3.465658316     0.872471396
 H       -2.600075364     1.190459563     0.880797461
 H       -3.273226308     5.748628495     0.426252802
 H       -0.623609882     6.728321325    -0.841292226
 H       -0.441835208     9.009958817    -1.292640757
 H       -1.300681245    11.285365481    -1.301183767
 H       -5.000000942     9.847758381     0.489078543
 H       -4.092041691     7.592667702     0.493538014
 H       -5.683780151    11.822863816    -2.007855370
 H       -6.718088824    13.431727148     0.461122136
 H       -9.002053309    13.870922011     0.529270360
 H      -11.273957767    13.696951542    -0.393005852
 H       -9.715949933    11.441428395    -3.735244845
 H       -7.492788601    11.517854694    -2.748902342
 H      -13.246833446    11.701888847    -4.144030134
 H      -11.839401074    10.707378991    -3.726396375
 H      -11.626886170    12.158845127    -4.759397889
 H      -11.068350032    17.640151171    -5.128145361
 H       -9.405997963    17.155362229    -5.532749931
 H      -10.031616262    16.900408668    -3.873886879
 H      -10.998447625    13.495793547    -6.962166010
 H       -9.426593063    11.593736775    -7.143705679
 H       -6.847735483    13.457585573    -4.235819617
 H       -8.403162745    15.344517323    -4.057017452
 H       -7.506190789    10.500659097    -6.577216698
 H       -5.624727520    11.807904329    -4.451802873
 H       -5.409111956    10.857574679    -8.073632277
 H       -5.586179592     9.949002394   -10.324306569
 H       -4.837433880     5.983144397    -8.829162378
 H       -4.657948985     6.842647626    -6.566782275
 H       -5.547114671     8.192270815   -11.859066391
 H       -5.008975025     5.354708334   -10.744242428
 H       -5.715951220     7.564193369   -13.774964082
 H       -5.897809064     6.702648197   -16.037786617
 H       -5.135117059     2.692297467   -14.529645438
 H       -4.971173408     3.598061225   -12.278831862
 H      -13.675154010    13.679334040    -3.202366953
 H      -13.003098213    14.014081838    -1.595074175
 H      -12.279368990    15.933925824    -2.718075897
 H      -10.862685790    14.917050687    -2.927425495
 H      -12.391032378    14.208350302    -5.204348740
 H      -12.826979447    15.918041978    -4.994365862
 H        2.263386924    -1.027894619     0.072203695
 H        2.259182111     0.570372530     0.861050706
 H        2.276835025     0.452017542    -0.919137726
 H       -5.674061817     4.869885906   -19.489677323
 H       -4.720537821     5.897369282   -18.390097121
 H       -6.503843279     5.971786592   -18.362394072
 H       -4.320136401     1.937033168   -16.676509778
 C       -4.231614279     2.060485836   -18.840536011
 C       -2.843280404     3.417242173   -17.254659668
 H       -7.339005523     2.636394301   -18.429465710
 C       -7.354479711     1.708759712   -16.465982694
 C       -8.530346018     3.834310746   -17.063204648
 H       -3.135320190    10.478317229    -3.950227781
 C       -2.153984717     8.862938125    -5.013367146
 C       -2.547881498    11.162794461    -5.931147080
 H       -4.777443591     7.401834702    -4.330575318
 C       -5.375468790     8.723253533    -2.720192464
 C       -6.911235442     7.800423426    -4.465440636
 H       -4.412918611    14.128343906     1.354103266
 C       -4.645085578    12.230886881     2.385944695
 C       -2.461340740    13.355964402     1.914994860
 H       -1.876690144    13.622208027    -1.106804897
 C       -2.917158365    13.231253043    -2.973938310
 C       -3.438698721    15.101883980    -1.400663755
 H       -0.160830100    -1.931692982    -1.519759556
 C       -2.159281455    -1.080606170    -1.572714569
 C       -0.191786601    -0.219411195    -2.856761433
 H       -1.775080780    -0.920328151     1.443719183
 C       -0.184537822    -2.383868557     1.616003069
 C       -0.284507552    -0.204401446     2.849179400
 H       -5.152627708     1.495112698   -19.032674723
 H       -3.406457930     1.337131609   -18.913923776
 H       -4.093931978     2.767276428   -19.669522088
 H       -2.733769196     3.882479574   -16.264444126
 H       -2.626828570     4.186897094   -18.007316536
 H       -2.039057139     2.671966405   -17.334020367
 H       -6.547847558     0.992657168   -16.667475753
 H       -8.295330521     1.168876643   -16.647402900
 H       -7.339050302     1.942277147   -15.392041649
 H       -8.609489856     4.712277334   -17.717099804
 H       -8.570582508     4.189258827   -16.023246128
 H       -9.446783169     3.248548917   -17.223614233
 H       -2.428704438     8.087936086    -4.284567356
 H       -1.137617355     9.184790330    -4.744433027
 H       -2.072995298     8.383890969    -5.998701403
 H       -3.141268786    12.087185829    -5.924057053
 H       -2.460279359    10.833221642    -6.976145546
 H       -1.533327965    11.443254563    -5.614545775
 H       -4.360932714     9.030537953    -2.425784331
 H       -5.638966094     7.889996170    -2.052774318
 H       -6.061824713     9.543939514    -2.470529522
 H       -7.050835951     7.402247956    -5.479252490
 H       -7.660804485     8.590548833    -4.313162167
 H       -7.177448080     6.986235650    -3.776744423
 H       -5.689557097    12.041321232     2.103487128
 H       -4.675260509    12.709162062     3.375269542
 H       -4.158593652    11.255713841     2.532320044
 H       -1.881122337    14.065575866     1.311476863
 H       -1.879431498    12.426246633     1.989118269
 H       -2.496575415    13.775619494     2.930962630
 H       -2.515656069    12.221103952    -3.138234442
 H       -2.273500686    13.911281817    -3.549877118
 H       -3.909971228    13.277031630    -3.444031842
 H       -3.388623559    15.517585153    -0.386411546
 H       -4.471114620    15.221753242    -1.759922827
 H       -2.816677962    15.756439305    -2.027779225
 H       -2.544101368    -1.657554004    -0.722215931
 H       -2.461763376    -1.629281345    -2.476540216
 H       -2.698594716    -0.123114972    -1.601673037
 H        0.897339614    -0.129894252    -2.958584993
 H       -0.622075461     0.785356202    -2.976112352
 H       -0.533588149    -0.804416189    -3.722714349
 H       -0.471234555    -2.980238879     0.740235004
 H       -0.643793531    -2.875934873     2.485777974
 H        0.901303721    -2.482012884     1.746686893
 H       -0.632381030     0.837726862     2.888711987
 H        0.795417821    -0.199359046     3.048613412
 H       -0.753581831    -0.717505644     3.700775052

