187   

Si        0.000000000     0.000000000     0.000000000
 C        1.865270203     0.000000000     0.000000000
 C       -0.674593481     1.712850000     0.000000000
 C        0.110844518     2.792586912     0.416715911
 C       -0.405601372     4.088098379     0.414575634
 C       -1.718193555     4.333506010     0.002794047
 C       -2.505504666     3.249970891    -0.408962829
 C       -1.992788128     1.955602294    -0.408565691
 C       -2.300317161     5.671319026    -0.015947030
 C       -1.655352464     6.791363645     0.351823424
 C       -2.237410705     8.129205827     0.333108373
 C       -1.450093275     9.212400313     0.744172355
 C       -1.962903070    10.507540399     0.743213910
 C       -3.273049126    10.752238408     0.316426429
 C       -4.060701124     9.670947757    -0.096597260
 C       -3.549281911     8.374603475    -0.082929265
Si       -3.981669254    12.450411723     0.302430652
 C       -5.136239465    12.690996070    -1.098761348
 C       -5.005758463    12.043709240    -2.264115458
 C       -5.901485921    12.201980836    -3.411748610
 C       -5.633266792    11.452247214    -4.567365691
 C       -6.443017502    11.557058833    -5.686532991
 C       -7.538987175    12.438447706    -5.679251081
 C       -7.816352234    13.185510744    -4.528964475
 C       -7.009148141    13.052910611    -3.402195988
 N       -8.320162285    12.482507318    -6.876345740
 C       -7.629131020    13.190446080    -7.977734507
 C       -9.712836558    12.926757418    -6.693752192
 C       -7.551924023    14.719965357    -7.806656923
 C       -6.177934567    15.308054591    -8.178464367
 N       -5.162495909    15.278033567    -7.107337811
 C       -5.538107865    15.794445946    -5.854877624
 C       -6.461146781    16.860835116    -5.785139799
 C       -6.840681061    17.380018486    -4.558514598
 C       -6.278504224    16.908161805    -3.364590325
 C       -5.335437031    15.878931158    -3.437013816
 C       -4.959754545    15.332554756    -4.656564005
 C       -4.344872556    14.054297511    -7.101083664
 C       -6.722100194    17.498122270    -2.101701284
 C       -6.263941034    17.136478680    -0.896599365
Si       -6.798632428    17.854526997     0.695900204
 C       -7.224552287    16.459559049     1.817792772
 C       -7.827935880    15.315867371     1.277013896
 C       -8.162933085    14.242927073     2.097392416
 C       -7.923518867    14.294284612     3.477550202
 C       -7.328221832    15.439077853     4.013666264
 C       -6.978439741    16.510864943     3.192362122
 C       -8.292782998    13.143430740     4.294336945
 C       -8.107992663    13.053444238     5.622129150
 C       -8.480048081    11.898684820     6.432588816
 C       -9.075067983    10.757454644     5.888820467
 C       -9.415003375     9.675157677     6.700320351
 C       -9.158923820     9.708630561     8.074654261
 C       -8.559891465    10.851516597     8.622051499
 C       -8.226835092    11.932330702     7.810421061
Si       -9.601171279     8.288938331     9.159985268
 C      -10.072116137     6.784121968     8.163348860
 C       -8.101690300     7.901791883    10.266830090
 C      -11.070783090     8.767605066    10.270813926
 C       -5.424855983    18.944744709     1.427149534
 C       -8.351319492    18.932873626     0.473618604
 C       -4.941462329    12.731770382     1.917289226
 C       -2.580192065    13.727217962     0.157279431
 C       -0.650979114    -0.912560637    -1.539044044
 C       -0.625036960    -0.914359058     1.547811945
 H        1.144548036     2.663483307     0.749231384
 H        0.227498943     4.911508289     0.740270401
 H       -3.530840384     3.418871867    -0.732616574
 H       -2.654760061     1.150497868    -0.739215684
 H       -3.337575548     5.714211398    -0.360861203
 H       -0.618430553     6.748458289     0.697727132
 H       -0.426551608     9.043151576     1.072663531
 H       -1.303751002    11.310717975     1.083353911
 H       -5.093412941     9.802738212    -0.437480769
 H       -4.183558560     7.550418560    -0.403872505
 H       -5.943994514    13.418870118    -0.928844201
 H       -4.199434189    11.319100024    -2.451235486
 H       -4.783647941    10.768878006    -4.583636171
 H       -6.251127439    10.950166499    -6.569229002
 H       -8.653961225    13.876883729    -4.506708925
 H       -7.240099770    13.641995308    -2.512801363
 H      -10.266709401    12.732268070    -7.628472801
 H       -9.829367954    13.990486926    -6.436604302
 H      -10.183775247    12.319479746    -5.900591052
 H       -4.124339951    13.738257146    -8.133030417
 H       -4.820504271    13.211156626    -6.569354502
 H       -3.373963514    14.273676809    -6.618909936
 H       -6.882718626    17.280222709    -6.693301464
 H       -7.577233851    18.183293811    -4.528639433
 H       -4.883603514    15.484686330    -2.523559831
 H       -4.234759155    14.523434959    -4.664160469
 H       -7.477662194    18.283362848    -2.237808542
 H       -5.499637052    16.348103080    -0.790418606
 H       -8.041027094    15.223555870     0.206231653
 H       -8.617265550    13.355188458     1.660264115
 H       -7.129897530    15.502451426     5.081645563
 H       -6.511250542    17.377824160     3.666644473
 H       -8.760046076    12.321968962     3.741917385
 H       -7.648054398    13.875261796     6.178320976
 H       -9.280461097    10.703435526     4.821154048
 H       -9.879212987     8.810476316     6.217921627
 H       -8.334217268    10.932825177     9.689106723
 H       -7.763167317    12.811393433     8.253974299
 H       -6.610023995    12.755429254    -8.076738970
 H       -8.165199691    12.934243482    -8.918529949
 H       -8.334903288    15.205014832    -8.416819227
 H       -7.796300637    14.989247318    -6.757049929
 H       -5.768064454    14.795781246    -9.076312457
 H       -6.300354945    16.377380710    -8.478064739
 H        2.263241353    -1.029061237    -0.053649320
 H        2.276384716     0.468243196     0.911312137
 H        2.259584179     0.554619353    -0.870996484
 H      -10.293854721     5.924566254     8.820866185
 H       -9.250080091     6.481813729     7.489126384
 H      -10.966959680     6.967654398     7.543243576
 H       -7.906533418     8.840628723    10.862494731
 C       -8.352809306     6.755361225    11.262352592
 C       -6.833923265     7.589886666     9.451256237
 H      -11.326212063     7.836169785    10.854374010
 C      -10.748665629     9.886057379    11.277961471
 C      -12.313156582     9.178062712     9.459048607
 H       -5.845954678    19.362730185     2.387563342
 C       -4.141707152    18.169248626     1.771287106
 C       -5.057555995    20.129117336     0.514677389
 H       -8.083341790    19.708236362    -0.300900722
 C       -9.558820691    18.131868738    -0.047102767
 C       -8.766355427    19.668222648     1.760310808
 H       -5.543325104    13.678651399     1.771023256
 C       -5.923162689    11.580591941     2.201478390
 C       -4.041796197    12.931878750     3.148378670
 H       -1.901698413    13.537807670     1.038894471
 C       -1.756155637    13.550189200    -1.130980945
 C       -3.066445020    15.183056768     0.239153906
 H       -1.775674598    -0.920107143    -1.442593955
 C       -0.295448483    -0.186838743    -2.849315714
 C       -0.177993704    -2.374317049    -1.631401741
 H       -0.148609649    -1.936393482     1.514241994
 C       -0.190758307    -0.227884210     2.855767810
 C       -2.152915606    -1.099963532     1.571533962
 H       -9.203913563     6.938378818    11.930857616
 H       -7.474967584     6.623552377    11.911687519
 H       -8.516700467     5.788060460    10.769159705
 H       -6.558978534     8.392525632     8.751807958
 H       -6.913454004     6.660204363     8.872224440
 H       -5.974221138     7.462206290    10.124484174
 H       -9.916029113     9.642003899    11.949733466
 H      -11.619300289    10.070678070    11.924191210
 H      -10.521150256    10.844969668    10.791523079
 H      -12.663795016     8.396645239     8.772660551
 H      -12.155049585    10.092332818     8.869060854
 H      -13.152662426     9.390718430    10.136421497
 H       -4.313672739    17.304237156     2.426449215
 H       -3.438148153    18.823529785     2.305517713
 H       -3.611726282    17.814153254     0.875957519
 H       -5.903168423    20.796201930     0.303687200
 H       -4.635574223    19.811565485    -0.449944302
 H       -4.289663394    20.751598799     0.995845212
 H       -9.362317812    17.601737571    -0.989000853
 H      -10.403276683    18.807378307    -0.242982222
 H       -9.921375039    17.390205593     0.679307234
 H       -7.996966772    20.353252645     2.138703724
 H       -9.037429665    18.983957539     2.576727916
 H       -9.657467632    20.284260549     1.570558560
 H       -6.664867290    11.433167566     1.405962708
 H       -6.490322408    11.794609432     3.120652954
 H       -5.420741493    10.618543691     2.375704485
 H       -3.369400579    13.794200345     3.061255138
 H       -3.432909702    12.048796795     3.384325475
 H       -4.665096389    13.119229047     4.036361500
 H       -1.306517527    12.552877676    -1.228024900
 H       -0.922030478    14.265460017    -1.146700439
 H       -2.341511744    13.737874150    -2.042937095
 H       -3.676276315    15.389057971     1.129861554
 H       -3.646727786    15.486011510    -0.643999167
 H       -2.205577397    15.864970269     0.288962233
 H       -0.651483210     0.852932759    -2.879962554
 H       -0.764153412    -0.697295243    -3.702607789
 H        0.783536411    -0.172394932    -3.052767020
 H       -0.459385723    -2.978402976    -0.759214676
 H        0.908011917    -2.465550873    -1.765374877
 H       -0.636667305    -2.862444665    -2.503621221
 H        0.897631451    -0.128589567     2.956133489
 H       -0.526045463    -0.818628398     3.720319170
 H       -0.629727414     0.772805273     2.978687905
 H       -2.535733905    -1.670496875     0.715956325
 H       -2.698372502    -0.146334358     1.612194814
 H       -2.449373714    -1.660231988     2.470231981

