187   

Si        0.000000000     0.000000000     0.000000000
 C        1.865001079     0.000000000     0.000000000
 C       -0.679568619     1.710911704     0.000000000
 C        0.095922797     2.793519187     0.427466251
 C       -0.427386137     4.086491922     0.424010944
 C       -1.736574340     4.326123906    -0.001479790
 C       -2.514100632     3.239564264    -0.424136780
 C       -1.995020416     1.947941663    -0.420929611
 C       -2.327648643     5.659850272    -0.023013393
 C       -1.697506949     6.785234353     0.354466214
 C       -2.294965717     8.116422594     0.330341743
 C       -1.527061032     9.209503690     0.751608443
 C       -2.056804232    10.498067799     0.745284482
 C       -3.363702859    10.725602458     0.299825691
 C       -4.131987425     9.634709838    -0.125157634
 C       -3.603837098     8.345312777    -0.104624845
Si       -4.104372836    12.409716986     0.273868339
 C       -5.175161901    12.641653834    -1.189813440
 C       -4.977613957    12.023694624    -2.362374621
 C       -5.825765649    12.199467065    -3.541644470
 C       -5.509923027    11.492447844    -4.711613772
 C       -6.278297093    11.621347126    -5.856056888
 C       -7.434595662    12.432334652    -5.853275929
 C       -7.754144661    13.139316044    -4.679207972
 C       -6.944819466    13.035389530    -3.554399299
 N       -8.200008999    12.548563610    -7.027343744
 C       -8.332241604    11.336195884    -7.854875657
 C       -9.447124758    13.325296507    -6.943202372
 C       -8.918930929    10.127367184    -7.096602453
 C       -9.628389152     9.144363309    -8.045935940
 N      -11.103528393     9.282510815    -8.082667534
 C      -11.540037981    10.598253836    -8.400528903
 C      -11.199579944    11.103616172    -9.671470671
 C      -11.594967819    12.378089683   -10.041381838
 C      -12.372413663    13.170391529    -9.181598561
 C      -12.729030773    12.654256001    -7.934506492
 C      -12.326147880    11.381044411    -7.543771047
 C      -11.751715024     8.662034822    -6.913386828
 C      -12.762189000    14.510558793    -9.623856808
 C      -13.500649405    15.358008492    -8.895059958
Si      -13.979433826    17.030279400    -9.462450788
 C      -12.710304841    17.728181744   -10.596033014
 C      -11.357925521    17.448696994   -10.363856455
 C      -10.373929782    17.963468722   -11.205693181
 C      -10.715845896    18.776966668   -12.290016809
 C      -12.068806844    19.061377307   -12.515268422
 C      -13.055517125    18.545732479   -11.677854023
 C       -9.718988216    19.337168216   -13.196552447
 C       -8.393983763    19.140274951   -13.089705174
 C       -7.394230720    19.698603653   -13.993997354
 C       -7.729419565    20.509379622   -15.081284181
 C       -6.740124028    21.021916570   -15.920452764
 C       -5.392061067    20.728667778   -15.692515884
 C       -5.053262966    19.914963349   -14.602807884
 C       -6.042372435    19.409138732   -13.764158391
Si       -4.074087064    21.397033628   -16.790496471
 C       -4.784081682    22.106969154   -18.362541408
 C       -3.122095643    22.767494724   -15.874589108
 C       -2.862398405    19.985706766   -17.195043214
 C      -15.669100851    16.931961700   -10.327941673
 C      -14.133043674    18.159022996    -7.939570775
 C       -5.161598712    12.640127205     1.838457501
 C       -2.741540521    13.737102014     0.259028252
 C       -0.647799889    -0.914182918    -1.539736399
 C       -0.625363439    -0.915125784     1.547209889
 H        1.126902471     2.668458450     0.769835680
 H        0.197719731     4.912435630     0.758540271
 H       -3.536780091     3.403992709    -0.758153591
 H       -2.650019411     1.140351141    -0.759479981
 H       -3.361463083     5.694854414    -0.379638418
 H       -0.664361098     6.752363902     0.711909259
 H       -0.505514553     9.053367256     1.092430817
 H       -1.413194839    11.310172208     1.093922769
 H       -5.159805112     9.754194705    -0.485127867
 H       -4.222481589     7.513477409    -0.436063028
 H       -6.002210054    13.353009473    -1.049688544
 H       -4.152523655    11.315286916    -2.527212631
 H       -4.635880500    10.839778325    -4.726947629
 H       -5.985874537    11.092595538    -6.758625710
 H       -8.631787272    13.776032560    -4.636290782
 H       -7.205329677    13.606910616    -2.662560506
 H       -9.919136235    13.384890281    -7.942441843
 H       -9.214470892    14.360924911    -6.638054444
 H      -10.188804750    12.898690541    -6.249064038
 H      -11.489360424     7.589413837    -6.893868926
 H      -12.848388180     8.720803250    -7.027201578
 H      -11.468745669     9.106208055    -5.946408469
 H      -10.633616155    10.481770113   -10.362125989
 H      -11.312333893    12.763472206   -11.022141012
 H      -13.336391364    13.249377968    -7.251356173
 H      -12.615380044    11.012259555    -6.564219523
 H      -12.379270762    14.763942989   -10.623209401
 H      -13.883405217    15.078791730    -7.902137567
 H      -11.029301516    16.820434183    -9.528471445
 H       -9.329738548    17.726647424   -11.007980531
 H      -12.356174190    19.693025634   -13.353622286
 H      -14.094019241    18.802766750   -11.902819884
 H      -10.127558513    19.952976901   -14.002841004
 H       -7.986357911    18.524239638   -12.282339013
 H       -8.771744401    20.749478025   -15.282688428
 H       -7.063640959    21.650881816   -16.754349482
 H       -4.016107977    19.651745168   -14.376119271
 H       -5.759603309    18.780146314   -12.921925389
 H       -8.964546049    11.589305711    -8.737486813
 H       -7.329908878    11.083898636    -8.268709329
 H       -8.115061783     9.612422316    -6.538490591
 H       -9.622365324    10.479762433    -6.317584358
 H       -9.253882682     9.260163544    -9.087843235
 H       -9.390979916     8.095607318    -7.759202190
 H        2.262649835    -1.029447829    -0.049431338
 H        2.276428301     0.471997409     0.909263590
 H        2.259444495     0.550994190    -0.873279810
 H       -3.984061856    22.470264269   -19.032139449
 H       -5.459219999    22.956714235   -18.159867942
 H       -5.359308897    21.343567767   -18.917222805
 H       -2.370648032    23.164573560   -16.616835448
 C       -4.032795037    23.932974473   -15.446849747
 C       -2.352053220    22.264957351   -14.640316936
 H       -2.441182292    19.646027043   -16.204215954
 C       -3.560641198    18.778979094   -17.847725037
 C       -1.683711978    20.423364375   -18.082514296
 H      -15.928347617    17.988744283   -10.627040886
 C      -15.623845467    16.069926520   -11.602307857
 C      -16.791080427    16.409719518    -9.412867847
 H      -14.930661352    17.698384652    -7.288179075
 C      -12.828052629    18.220978124    -7.125286646
 C      -14.571361119    19.590660072    -8.292823855
 H       -5.582316099    13.685242150     1.778456101
 C       -6.341861173    11.653763769     1.897818644
 C       -4.348501688    12.525578102     3.139635405
 H       -2.123929779    13.562315868     1.186763673
 C       -1.816656133    13.611142002    -0.965042721
 C       -3.292737992    15.172976082     0.320224418
 H       -1.772478217    -0.925104736    -1.444055226
 C       -0.293103453    -0.187079926    -2.849458654
 C       -0.170668670    -2.374536728    -1.632322961
 H       -0.150672532    -1.937959996     1.512025511
 C       -0.189099943    -0.230952990     2.855668572
 C       -2.153468814    -1.098582897     1.571700112
 H       -4.556423649    24.408295338   -16.286211339
 H       -3.434746445    24.723427687   -14.970927705
 H       -4.790498147    23.634239474   -14.708143736
 H       -1.618038372    21.483022842   -14.872446184
 H       -3.014634292    21.883051105   -13.850783672
 H       -1.785172400    23.092507998   -14.189129996
 H       -4.385936825    18.375850497   -17.243434226
 H       -2.845274280    17.954527719   -17.978464822
 H       -3.960260620    19.002429957   -18.845754001
 H       -1.090116502    21.237476485   -17.646801685
 H       -1.997103372    20.738162015   -19.086695972
 H       -0.990741208    19.581696054   -18.227373317
 H      -14.880369307    16.410836713   -12.336119885
 H      -16.596539191    16.099856503   -12.113291444
 H      -15.417981891    15.009911867   -11.393640846
 H      -16.941992109    17.021547124    -8.514400216
 H      -16.631255222    15.371527417    -9.089859815
 H      -17.749376696    16.417846250    -9.952460587
 H      -12.478221128    17.236952600    -6.784761456
 H      -12.977769591    18.825774946    -6.219577357
 H      -12.003216639    18.695506997    -7.676648109
 H      -15.545212289    19.636901503    -8.796833516
 H      -13.842420059    20.118299887    -8.924869826
 H      -14.671687147    20.190687067    -7.376628452
 H       -7.002839725    11.710967066     1.022259137
 H       -6.970266953    11.869905032     2.773326121
 H       -6.018868602    10.607979430     2.002863702
 H       -3.539795217    13.263701390     3.214759901
 H       -3.905934464    11.529170828     3.281535008
 H       -5.001489020    12.696357476     4.007709972
 H       -1.338126287    12.626155410    -1.053587099
 H       -1.001499611    14.345315131    -0.900136398
 H       -2.336455891    13.810280590    -1.913863845
 H       -3.901369882    15.369128905     1.211959118
 H       -3.893333169    15.437655689    -0.561421493
 H       -2.462084885    15.892815674     0.352174111
 H       -0.650619824     0.852178853    -2.879637694
 H       -0.760584968    -0.697670348    -3.703312786
 H        0.785976063    -0.170876041    -3.052479273
 H       -0.451551714    -2.979944288    -0.760872098
 H        0.915780560    -2.462786116    -1.764922213
 H       -0.626811349    -2.863435999    -2.505450348
 H        0.899590315    -0.134671524     2.955921856
 H       -0.525747290    -0.821578090     3.719811057
 H       -0.625440297     0.770716475     2.979660998
 H       -2.537931639    -1.666422078     0.715077596
 H       -2.697522027    -0.144301409     1.615159959
 H       -2.449992081    -1.660687146     2.469253076

