187   

Si        0.000000000     0.000000000     0.000000000
 C        1.866149779     0.000000000     0.000000000
 C       -0.651428897     1.721831237     0.000000000
 C        0.070005416     2.745098227    -0.624158120
 C       -0.415524802     4.051461628    -0.629063615
 C       -1.627065661     4.369806098    -0.007904353
 C       -2.350979199     3.343032648     0.610514474
 C       -1.874638213     2.033918793     0.606847831
 C       -2.165284733     5.727087317     0.006220523
 C       -1.550789028     6.774046514    -0.569052644
 C       -2.039844744     8.146938755    -0.586277340
 C       -1.256053923     9.107936175    -1.239416669
 C       -1.662067690    10.436914196    -1.294459416
 C       -2.858890667    10.841223555    -0.688266097
 C       -3.642114555     9.884760731    -0.033245451
 C       -3.235597817     8.550055091     0.014160812
Si       -3.369154171    12.604667014    -0.777834640
 C       -4.189084791    13.211745214     0.733839847
 C       -3.956193708    12.769508242     1.976005122
 C       -4.644188327    13.292723243     3.158798875
 C       -4.324973489    12.758396724     4.416368840
 C       -4.948775406    13.220807556     5.563061389
 C       -5.919737441    14.237108469     5.477262447
 C       -6.235763745    14.782185975     4.226190548
 C       -5.590598015    14.316862052     3.084750274
 N       -6.517634863    14.661014094     6.698100252
 C       -7.308843278    13.622959470     7.384018253
 C       -7.165628952    15.980964756     6.666734264
 C       -8.784067533    13.491177657     6.957013891
 C       -8.967674115    13.021356545     5.504986965
 N       -8.366986613    11.695239644     5.232322845
 C       -8.478670499    11.251615004     3.887795617
 C       -9.085287399    12.010480526     2.872223906
 C       -9.160598403    11.514572118     1.575132643
 C       -8.607221820    10.275574072     1.237101871
 C       -7.959659232     9.544530250     2.241761826
 C       -7.867258060    10.030911412     3.535736224
 C       -8.764684057    10.678377852     6.229396948
 C       -8.710472670     9.792473115    -0.143471818
 C       -8.208150800     8.619542592    -0.547820656
Si       -8.243843665     7.865433039    -2.211687522
 C       -6.517688118     7.355573484    -2.589248231
 C       -5.517982760     8.329291504    -2.708872669
 C       -4.206516833     7.960720462    -2.994261333
 C       -3.864424081     6.614747622    -3.175276378
 C       -4.864558700     5.646456784    -3.058784968
 C       -6.177491386     6.011709417    -2.768124084
 C       -2.479169137     6.267697650    -3.473118952
 C       -2.046747801     5.009412281    -3.659069106
 C       -0.672034199     4.630393699    -3.957443439
 C        0.362604075     5.560187569    -4.083767100
 C        1.662493498     5.141921990    -4.370742371
 C        1.955503688     3.782774275    -4.515468436
 C        0.919224960     2.848329581    -4.383405946
 C       -0.378572837     3.268771468    -4.112790888
Si        3.655584927     3.191563832    -4.893588972
 C        4.888363728     4.590872699    -4.913175281
 C        4.102889408     1.922994283    -3.544125302
 C        3.692927924     2.328762289    -6.588712933
 C       -9.383403968     6.337704425    -2.100187347
 C       -8.943573074     8.980954243    -3.579376487
 C       -1.872457903    13.717524511    -1.153271349
 C       -4.631526165    12.787036780    -2.193823292
 C       -0.628699019    -0.905162655    -1.551829161
 C       -0.655197030    -0.926295179     1.528218458
 H        1.023260264     2.561677819    -1.129639334
 H        0.161539976     4.825555407    -1.135181464
 H       -3.299327034     3.566596467     1.094425014
 H       -2.488157942     1.274370232     1.097428447
 H       -3.123748730     5.846631919     0.515843094
 H       -0.593011386     6.630654480    -1.083180061
 H       -0.318953992     8.814562797    -1.708012104
 H       -1.010326964    11.136858573    -1.824399681
 H       -4.586960045    10.146699890     0.456470076
 H       -3.864106386     7.818979242     0.519562274
 H       -4.910868795    14.024228197     0.548989792
 H       -3.244551449    11.964461694     2.201274627
 H       -3.582579479    11.963799446     4.493328072
 H       -4.691210126    12.805197212     6.534508482
 H       -6.980143099    15.566001601     4.134075103
 H       -5.850209427    14.751695828     2.119222538
 H       -7.433014538    16.270520153     7.697362700
 H       -8.070834198    16.034712711     6.042685135
 H       -6.439521122    16.726735915     6.295674282
 H       -8.233018602    10.883482264     7.174487330
 H       -8.467018207     9.665663920     5.912812539
 H       -9.849315135    10.664626882     6.421319001
 H       -9.522491776    12.980719991     3.082523754
 H       -9.655107693    12.113114452     0.810159300
 H       -7.494622099     8.586565469     2.003191921
 H       -7.310002191     9.471530471     4.284002243
 H       -9.239658869    10.479010733    -0.812968127
 H       -7.684220156     7.961593054     0.171923147
 H       -5.722898354     9.396127867    -2.565217354
 H       -3.436009753     8.729215939    -3.063212526
 H       -4.624003047     4.592932542    -3.188940220
 H       -6.913802631     5.207406950    -2.695549678
 H       -1.793681143     7.117083569    -3.536253981
 H       -2.742926734     4.167822089    -3.583088646
 H        0.158431139     6.622600984    -3.967720928
 H        2.430636892     5.913056703    -4.468780550
 H        1.091406756     1.772563995    -4.486183775
 H       -1.174698250     2.532153944    -4.014597829
 H       -6.800329611    12.639190400     7.246386464
 H       -7.262926718    13.858251823     8.473104002
 H       -9.298174430    12.803435895     7.654439689
 H       -9.300544406    14.463303880     7.078084265
 H      -10.054655897    13.037047036     5.260218682
 H       -8.459053116    13.749552032     4.825991225
 H        2.265066162    -1.028406166     0.041461939
 H        2.258006231     0.546377886     0.877189271
 H        2.275518852     0.482334785    -0.906280810
 H        5.909763526     4.218703744    -5.108632253
 H        4.908689977     5.118885819    -3.942850406
 H        4.649205767     5.332105687    -5.695833374
 H        3.306223598     1.124379658    -3.597725426
 C        5.466522549     1.245448576    -3.762520620
 C        4.065455053     2.530685057    -2.130115966
 H        4.778913444     2.085278637    -6.776670600
 C        2.897366293     1.012261470    -6.646096872
 C        3.206771654     3.247379197    -7.724854930
 H       -9.187058743     5.738015768    -3.035146222
 C       -9.076109216     5.446840105    -0.881723342
 C      -10.880661634     6.695200216    -2.074078763
 H      -10.011749077     9.192643590    -3.279429191
 C       -8.224893323    10.331961843    -3.728150265
 C       -8.960944179     8.281460021    -4.951783085
 H       -1.449243185    13.358801032    -2.135027801
 C       -2.244583696    15.202743388    -1.316117616
 C       -0.773234435    13.599702303    -0.081721220
 H       -4.701803873    13.892761377    -2.404137062
 C       -4.201573250    12.081174489    -3.490679467
 C       -6.030099189    12.292209105    -1.787072698
 H       -0.279226110    -1.972409841    -1.448742825
 C       -2.164267405    -0.912529316    -1.661325987
 C       -0.042040933    -0.335261216    -2.855670338
 H       -1.780208600    -0.916949052     1.438731553
 C       -0.203945417    -2.396574399     1.596859495
 C       -0.279485379    -0.228520806     2.848297497
 H        5.546206582     0.727447010    -4.726935750
 H        5.635609683     0.482073570    -2.989112786
 H        6.309384002     1.945513929    -3.690870086
 H        3.099120754     2.993527101    -1.881697137
 H        4.844043276     3.287563177    -1.967615649
 H        4.237186353     1.747294847    -1.377701410
 H        3.210917485     0.278111517    -5.893364609
 H        3.043665857     0.529711142    -7.623559685
 H        1.814064318     1.165160479    -6.542071586
 H        3.785217875     4.176077830    -7.813522829
 H        2.147301511     3.524904183    -7.626033949
 H        3.301131773     2.733635926    -8.692262741
 H       -8.020890501     5.154543956    -0.797567992
 H       -9.650018746     4.511717009    -0.945992108
 H       -9.363492972     5.919866314     0.068035949
 H      -11.218128504     7.220801615    -2.976436580
 H      -11.161116340     7.306931495    -1.205297211
 H      -11.484774999     5.778634655    -2.011484560
 H       -8.218370618    10.921129565    -2.801031976
 H       -8.733506359    10.948194212    -4.482847058
 H       -7.185306201    10.227896573    -4.070595334
 H       -9.534329799     7.345731051    -4.960939133
 H       -7.952617931     8.055994210    -5.328644272
 H       -9.429725295     8.934170839    -5.701930251
 H       -2.962198335    15.387275623    -2.125140097
 H       -1.348002819    15.789115950    -1.563966012
 H       -2.654236298    15.643586180    -0.396322984
 H       -0.416047649    12.572003413     0.070985851
 H       -1.092108829    13.985005999     0.898039560
 H        0.105583231    14.190865448    -0.374477604
 H       -3.239901264    12.436048254    -3.881818343
 H       -4.941110515    12.263765522    -4.283220898
 H       -4.130738953    10.988973525    -3.380384045
 H       -6.441966705    12.812415369    -0.910911191
 H       -6.058172298    11.215071814    -1.562234523
 H       -6.740479394    12.463906525    -2.607677343
 H       -2.659760115    -1.392616104    -0.808161628
 H       -2.476335978    -1.475961364    -2.552096985
 H       -2.588980537     0.096276857    -1.769539212
 H        1.054086350    -0.383581002    -2.895137817
 H       -0.340884478     0.709159846    -3.029847134
 H       -0.407413086    -0.911559414    -3.717285820
 H       -0.505743891    -2.985678175     0.721503180
 H       -0.659603011    -2.888362052     2.468649006
 H        0.882078717    -2.506182858     1.715916849
 H       -0.607673570     0.819722175     2.895762384
 H        0.800267264    -0.244496743     3.048276532
 H       -0.758507243    -0.739667664     3.695279637

