187   

Si        0.000000000     0.000000000     0.000000000
 C        1.865455955     0.000000000     0.000000000
 C       -0.675315465     1.712314708     0.000000000
 C        0.137538766     2.807323411    -0.309600934
 C       -0.383454194     4.101053609    -0.306924075
 C       -1.727687751     4.329558594    -0.001391641
 C       -2.541906140     3.230772971     0.304543028
 C       -2.024447387     1.938397210     0.304596683
 C       -2.315347335     5.665073213     0.013513462
 C       -1.645291900     6.797764996    -0.258502964
 C       -2.230364604     8.134335042    -0.244329427
 C       -3.574995580     8.365241748     0.061069170
 C       -4.092271049     9.659585437     0.062781471
 C       -3.271081925    10.753650904    -0.232540673
 C       -1.924260789    10.525752558    -0.538779635
 C       -1.412820033     9.230281581    -0.548591570
Si       -3.958992009    12.461536633    -0.229015989
 C       -2.602513344    13.684563295    -0.322194917
 C       -2.530223708    14.712418300    -1.178260720
 C       -1.422794043    15.669982977    -1.218159446
 C       -1.456250433    16.708441474    -2.160627990
 C       -0.432037037    17.636907339    -2.235417494
 C        0.700106060    17.533056405    -1.402007964
 C        0.734739994    16.491015809    -0.459191404
 C       -0.323727730    15.593939525    -0.360510189
 N        1.729948121    18.501080645    -1.505137675
 C        2.116934585    18.849778429    -2.893479547
 C        2.888056334    18.296334861    -0.618136412
 C        2.976634467    20.123575021    -2.975106609
 C        2.291221420    21.365366468    -2.370375445
 N        1.199863291    21.956876314    -3.166689051
 C       -0.059798923    21.320988882    -3.041922523
 C       -0.611545483    21.217129281    -1.747291068
 C       -1.838471113    20.606844866    -1.561325728
 C       -2.584441392    20.136585729    -2.655277096
 C       -2.051763496    20.273853018    -3.937373833
 C       -0.806437569    20.863918468    -4.137540461
 C        1.605842711    22.336799504    -4.528477636
 C       -3.875491991    19.499939574    -2.392254027
 C       -4.684030990    19.009754715    -3.340496433
Si       -6.297944722    18.212746997    -3.025694621
 C       -6.373481588    16.605682679    -3.917967532
 C       -5.200796528    15.989797935    -4.367421681
 C       -5.256866358    14.772255199    -5.043528373
 C       -6.482081418    14.141970085    -5.279446409
 C       -7.654584938    14.758762102    -4.823834981
 C       -7.602474046    15.975685378    -4.149090304
 C       -6.587637736    12.867856551    -5.982495983
 C       -5.542141645    12.176735698    -6.467737154
 C       -5.640353542    10.902929919    -7.171306384
 C       -6.860303072    10.266601091    -7.412471270
 C       -6.906693762     9.048147111    -8.089947434
 C       -5.730100373     8.432905404    -8.528373763
 C       -4.504372760     9.066846880    -8.282125540
 C       -4.461776193    10.286602800    -7.613126516
Si       -5.771060062     6.825172746    -9.423919860
 C       -7.456845886     6.031625808    -9.334336736
 C       -5.322795865     7.099735922   -11.253244352
 C       -4.463193654     5.683917462    -8.641891805
 C       -6.514230650    17.875802867    -1.165978758
 C       -7.696595054    19.350416637    -3.622423122
 C       -5.109778854    12.656778961    -1.730460466
 C       -4.943268765    12.709884078     1.378561705
 C       -0.615660194    -0.919664476    -1.548801394
 C       -0.656690696    -0.904702079     1.540827553
 H        1.196441837     2.691818705    -0.556706577
 H        0.271498512     4.936508453    -0.547410132
 H       -3.591823428     3.386582163     0.545283768
 H       -2.707588016     1.121146126     0.552184340
 H       -3.378438910     5.694682769     0.269014163
 H       -0.582130521     6.767122438    -0.514799640
 H       -4.231884291     7.530639557     0.297986226
 H       -5.152492493     9.778038930     0.303521872
 H       -1.239254017    11.343407200    -0.784535001
 H       -0.364802691     9.071237717    -0.794381904
 H       -1.812694045    13.515812942     0.427953505
 H       -3.303301612    14.915955002    -1.932989197
 H       -2.311409169    16.806157597    -2.832373686
 H       -0.511929673    18.461419548    -2.943988822
 H        1.582552884    16.367038383     0.205991542
 H       -0.275382988    14.806842553     0.393151189
 H        3.558737173    19.169537375    -0.674253774
 H        3.471197626    17.391644920    -0.851921918
 H        2.539548443    18.241166399     0.429263714
 H        2.528557219    22.939461684    -4.474439466
 H        0.823628042    22.980684413    -4.969958884
 H        1.783795129    21.486343208    -5.205080062
 H       -0.057607748    21.600732921    -0.892741068
 H       -2.234162476    20.499714140    -0.550674249
 H       -2.611862761    19.917751452    -4.802506844
 H       -0.418980052    20.947757221    -5.147290453
 H       -4.119580753    19.456821392    -1.321233364
 H       -4.419815780    19.075714714    -4.407695193
 H       -4.213273729    16.435871527    -4.209310692
 H       -4.330940041    14.313659378    -5.387495874
 H       -8.618120964    14.284311962    -4.997638257
 H       -8.549206896    16.410544655    -3.817830324
 H       -7.607314680    12.490361297    -6.098313842
 H       -4.521993810    12.557912555    -6.355078165
 H       -7.789934062    10.720737668    -7.074800202
 H       -7.890497680     8.600122005    -8.253588023
 H       -3.552473642     8.630613561    -8.598201071
 H       -3.500341970    10.763151370    -7.429637710
 H        2.657968375    18.006941420    -3.379140910
 H        1.186992176    19.021503839    -3.487406936
 H        3.946477887    19.966619561    -2.466232435
 H        3.232479358    20.306161285    -4.036360626
 H        1.898370733    21.104692477    -1.357970499
 H        3.048392022    22.168768483    -2.217535994
 H        2.263324820    -1.029058390     0.054174210
 H        2.260865031     0.554913719     0.870236441
 H        2.275206064     0.467254453    -0.912471532
 H       -7.459724094     5.046251918    -9.833602792
 H       -8.228632945     6.653091727    -9.820936104
 H       -7.763892733     5.871882500    -8.284679311
 H       -5.429663792     6.090448757   -11.746478933
 C       -6.282985306     8.078003793   -11.954665760
 C       -3.878746491     7.585133969   -11.472541887
 H       -3.471674582     6.202377547    -8.792796598
 C       -4.671583290     5.498589759    -7.128220515
 C       -4.378046507     4.300284082    -9.310316990
 H       -6.408809158    18.876466440    -0.655567027
 C       -7.895688781    17.300760859    -0.805535756
 C       -5.430356529    16.934305056    -0.612456135
 H       -8.660033106    18.819791828    -3.370420236
 C       -7.706821024    20.716064489    -2.913416956
 C       -7.663857208    19.574670410    -5.144906390
 H       -5.287656025    13.765713122    -1.853169255
 C       -4.440350017    12.131932662    -3.013520967
 C       -6.482111932    11.979860922    -1.576499405
 H       -5.756501401    11.927147616     1.362058202
 C       -4.084470490    12.474177320     2.634517860
 C       -5.614278446    14.089611893     1.483709741
 H       -0.121003134    -1.933255576    -1.518797080
 C       -2.139742412    -1.133613275    -1.572454004
 C       -0.195888640    -0.221589308    -2.855462144
 H       -1.781440793    -0.903845613     1.443871437
 C       -0.193756797    -2.369292334     1.637388968
 C       -0.296762253    -0.177278701     2.848991234
 H       -7.333625857     7.762979092   -11.914952208
 H       -6.026801406     8.158075667   -13.020842635
 H       -6.226072674     9.097690021   -11.547232972
 H       -3.122365433     6.901437126   -11.066756295
 H       -3.695348929     8.582572740   -11.048935272
 H       -3.670311830     7.667689920   -12.549244444
 H       -4.684663943     6.447456357    -6.572151992
 H       -3.847855340     4.906949182    -6.703083334
 H       -5.596506042     4.959857911    -6.884071809
 H       -4.160386749     4.348447659   -10.384931649
 H       -5.291583187     3.705144213    -9.180158291
 H       -3.564028698     3.715049348    -8.857861346
 H       -8.729562305    17.953470269    -1.091769518
 H       -7.973698274    17.167052772     0.283308237
 H       -8.075965728    16.311039967    -1.248632532
 H       -4.401103464    17.265975761    -0.812756462
 H       -5.521384562    15.909660496    -1.001440430
 H       -5.517325718    16.860438676     0.480838056
 H       -7.815727767    20.640284856    -1.823821632
 H       -8.557312800    21.317041108    -3.265892148
 H       -6.804920761    21.311056260    -3.117331327
 H       -7.696595632    18.641015487    -5.723773069
 H       -6.781720177    20.140148509    -5.475340691
 H       -8.540038860    20.159990358    -5.458566600
 H       -3.496806540    12.639384347    -3.253796368
 H       -5.108763774    12.290460250    -3.873798342
 H       -4.239634546    11.051427643    -2.984672713
 H       -7.056253979    12.346577307    -0.717152027
 H       -6.414237005    10.886521380    -1.499658353
 H       -7.097191941    12.185051939    -2.466186376
 H       -3.611195103    11.482480566     2.658427209
 H       -4.710648051    12.535117971     3.535744577
 H       -3.291632021    13.224245722     2.758464918
 H       -6.296550019    14.306083563     0.650438821
 H       -4.886356733    14.911358493     1.543214703
 H       -6.219530283    14.146620225     2.399114055
 H       -2.513476257    -1.703476764    -0.712411784
 H       -2.424442190    -1.707122633    -2.466589276
 H       -2.702096009    -0.190461562    -1.622984200
 H        0.890196970    -0.099908225    -2.956242771
 H       -0.654474923     0.770686982    -2.975100884
 H       -0.519818754    -0.816383067    -3.721402739
 H       -0.475286426    -2.972943866     0.764980639
 H       -0.659173881    -2.853088376     2.508482250
 H        0.891117196    -2.467170251     1.775878488
 H       -0.647441135     0.864483814     2.876478001
 H        0.782239243    -0.168183227     3.052402108
 H       -0.768549117    -0.682544486     3.703699716

