187   

Si        0.000000000     0.000000000     0.000000000
 C        1.865523180     0.000000000     0.000000000
 C       -0.680167302     1.710447435     0.000000000
 C        0.148096493     2.820079677     0.195059380
 C       -0.381933899     4.110307832     0.192452693
 C       -1.750202798     4.320364500     0.002959993
 C       -2.579334450     3.207155342    -0.190152915
 C       -2.052659179     1.918639881    -0.193426689
 C       -2.348903573     5.650988916    -0.007408492
 C       -1.668665142     6.797805653     0.160078507
 C       -2.267716091     8.128279121     0.149649538
 C       -3.636598325     8.336658852    -0.040031829
 C       -4.167536354     9.626052110    -0.042821273
 C       -3.339978416    10.736065589     0.156038177
 C       -1.967266319    10.530304225     0.346481088
 C       -1.438839782     9.242258663     0.337461640
Si       -4.022145552    12.444225733     0.155665403
 C       -3.062230442    13.578341727     1.220978202
 C       -2.396114481    13.204758731     2.321897529
 C       -1.630171830    14.121789368     3.168172893
 C       -0.973208408    13.611383490     4.298202198
 C       -0.236095251    14.437714904     5.130132302
 C       -0.167719464    15.824159235     4.878603754
 C       -0.824611469    16.337321965     3.747948150
 C       -1.525729311    15.488314210     2.899326291
 N        0.596133034    16.633428018     5.752517311
 C        0.336964840    16.415705459     7.191942923
 C        0.685533386    18.062486192     5.404049841
 C       -1.148652389    16.564051532     7.569559506
 C       -1.364213081    16.941708285     9.044466655
 N       -0.753835439    18.219665475     9.478827499
 C       -0.755027313    19.256593205     8.521224546
 C       -1.977313148    19.578943606     7.892798615
 C       -2.029922022    20.588043009     6.946969453
 C       -0.886157352    21.332279894     6.618004171
 C        0.314549178    21.029228841     7.263044071
 C        0.385764589    20.014723084     8.211485208
 C        0.479304194    18.037421458    10.261234939
 C       -0.998244295    22.388625768     5.610119207
 C        0.023500521    23.160257699     5.217887860
Si       -0.058652802    24.490327210     3.967220156
 C        0.698940109    26.026654888     4.634920774
 C        0.797984856    26.222972935     6.017792731
 C        1.371778881    27.386570650     6.524355805
 C        1.848870492    28.384273393     5.664272218
 C        1.742065863    28.187236107     4.284381369
 C        1.172541272    27.021969863     3.773351809
 C        2.441931818    29.585648764     6.242752618
 C        2.939369447    30.611439781     5.531258203
 C        3.532636377    31.813256790     6.108279021
 C        3.641134108    32.013770871     7.486714568
 C        4.215840907    33.178757636     7.994959225
 C        4.701679465    34.166817509     7.132959359
 C        4.594956688    33.967578975     5.749726592
 C        4.015587734    32.806651080     5.245634513
Si        5.462898212    35.709928029     7.787748844
 C        5.836033463    35.571174458     9.610131162
 C        7.062212006    36.046664663     6.811903188
 C        4.269838441    37.168238403     7.516973146
 C        0.902856367    23.915677886     2.428630200
 C       -1.855402030    24.853737105     3.462000175
 C       -3.974389105    13.116648566    -1.623529109
 C       -5.828409580    12.425931281     0.753587584
 C       -0.660300795    -0.896298577    -1.543888773
 C       -0.602063776    -0.930795705     1.547679897
 H        1.225744494     2.718851775     0.350575175
 H        0.285073789     4.957392678     0.342214976
 H       -3.647856646     3.348662646    -0.340853180
 H       -2.747863183     1.089604717    -0.353450454
 H       -3.431128596     5.664119823    -0.166333048
 H       -0.586295467     6.784685059     0.318803444
 H       -4.302326791     7.488903562    -0.189747915
 H       -5.244727263     9.725505649    -0.201488635
 H       -1.272189385    11.362693503     0.502118579
 H       -0.369153302     9.102225282     0.482309538
 H       -3.080396261    14.630073836     0.896047754
 H       -2.369265979    12.164436556     2.675888085
 H       -1.032225506    12.545340100     4.520253641
 H        0.294451171    14.015010683     5.979045682
 H       -0.796818980    17.399248022     3.522326581
 H       -2.014934598    15.908506124     2.019745162
 H        1.387121316    18.566487307     6.092060351
 H       -0.275703341    18.601147417     5.460122808
 H        1.101545217    18.165866610     4.386705452
 H        0.261719513    17.373113377    11.116886459
 H        0.792583988    19.006856119    10.688810138
 H        1.320659156    17.608962085     9.694056189
 H       -2.879421791    19.033752391     8.160565659
 H       -2.979741369    20.815181383     6.461367642
 H        1.216866698    21.597253787     7.029727219
 H        1.337449157    19.807822975     8.690550155
 H       -2.012924629    22.492703184     5.204268951
 H        1.033023127    23.026100594     5.641892964
 H        0.437231778    25.479718354     6.736295796
 H        1.445973880    27.520681711     7.601967321
 H        2.104902270    28.946928752     3.594606540
 H        1.117471150    26.923270426     2.685756237
 H        2.459869041    29.606040216     7.336373997
 H        2.921075812    30.590796888     4.437635850
 H        3.274524231    31.258070722     8.179015703
 H        4.271613329    33.279468064     9.082406482
 H        4.958077213    34.704910485     5.028127583
 H        3.940120470    32.670669507     4.168469076
 H        0.708662869    15.402985208     7.463037502
 H        0.965058078    17.135092862     7.762399053
 H       -1.625142141    17.319438085     6.911568836
 H       -1.686631707    15.621341315     7.348815672
 H       -2.460421386    17.032948173     9.240886070
 H       -1.001779647    16.120818367     9.700490336
 H        2.263213115    -1.030149241    -0.031015577
 H        2.274125377     0.487194524     0.902701771
 H        2.262507562     0.534897429    -0.881839126
 H        6.335355763    36.482592574     9.984833387
 H        6.508257099    34.717698033     9.812976630
 H        4.917815144    35.426462181    10.205914219
 H        6.747434828    36.166403584     5.734395255
 C        7.781763874    37.338493191     7.238630751
 C        8.054645252    34.872050835     6.884118106
 H        4.767521792    38.061612851     7.993900851
 C        4.022305925    37.496525336     6.033769419
 C        2.910518032    36.953576234     8.207616666
 H        0.797517958    24.742540117     1.668241758
 C        2.402822663    23.717565041     2.710543053
 C        0.333618536    22.625632009     1.812317787
 H       -2.298118144    23.862418407     3.154356041
 C       -2.691236813    25.412777934     4.627897812
 C       -1.969156083    25.816487321     2.266556849
 H       -4.412047981    14.155282110    -1.576991956
 C       -2.537645716    13.226595251    -2.164777605
 C       -4.817197175    12.286068386    -2.606754013
 H       -6.393676389    11.777028548     0.024147971
 C       -5.971986731    11.807677635     2.155824709
 C       -6.481321137    13.819705577     0.752829485
 H       -1.785174375    -0.886659877    -1.448469305
 C       -0.293190542    -0.168557126    -2.849845645
 C       -0.207786404    -2.363899050    -1.643054573
 H       -0.085619423    -1.933758458     1.517252190
 C       -0.196382090    -0.224226881     2.854311752
 C       -2.120654230    -1.179519177     1.573895836
 H        7.155321951    38.235336077     7.148571475
 H        8.657438577    37.509855745     6.595681914
 H        8.161066215    37.297333747     8.268292758
 H        7.625535154    33.919672216     6.541148856
 H        8.455089951    34.709600236     7.893573411
 H        8.920322991    35.069444254     6.235878549
 H        4.938332497    37.744821016     5.483026541
 H        3.366351949    38.375259357     5.948574199
 H        3.514249276    36.683645072     5.496069950
 H        2.991229699    36.795295926     9.290723286
 H        2.347690245    36.106929188     7.788762941
 H        2.275378643    37.840978520     8.073647044
 H        2.891205893    24.612511646     3.121560980
 H        2.933304787    23.481124403     1.777082841
 H        2.602884287    22.884336170     3.398076920
 H       -0.715845059    22.716906588     1.504152515
 H        0.409369560    21.759565479     2.485622403
 H        0.897259636    22.361424369     0.906056778
 H       -2.699571873    24.764299058     5.514557670
 H       -3.739860742    25.528110772     4.319567694
 H       -2.355150331    26.408162331     4.953297562
 H       -1.485569979    25.440360258     1.356145301
 H       -1.558549511    26.813838704     2.479043213
 H       -3.027114458    25.971507786     2.008907755
 H       -1.883900804    13.854602374    -1.543996759
 H       -2.544888997    13.682885823    -3.164728413
 H       -2.047962230    12.248463179    -2.277591465
 H       -5.880911973    12.242881172    -2.340523123
 H       -4.456300354    11.252935980    -2.713669090
 H       -4.770507080    12.730951150    -3.611362781
 H       -5.582441183    10.782238003     2.222798359
 H       -7.032657078    11.753198926     2.438170167
 H       -5.474647559    12.400884033     2.936957274
 H       -6.487088282    14.297999531    -0.234825267
 H       -6.005887076    14.514221670     1.459717935
 H       -7.533832285    13.741361199     1.061220433
 H       -0.635876758     0.875858997    -2.875419956
 H       -0.768320737    -0.667975322    -3.706191598
 H        0.785971654    -0.167702203    -3.052412738
 H       -0.499679529    -2.968727972    -0.774831696
 H        0.877204015    -2.469592432    -1.774827480
 H       -0.670968284    -2.840802311    -2.519128630
 H        0.887133444    -0.080811247     2.955243070
 H       -0.508497088    -0.825453966     3.720247760
 H       -0.674195211     0.758834892     2.974098497
 H       -2.486473346    -1.740153778     0.704499158
 H       -2.703429556    -0.250673021     1.647319557
 H       -2.387197397    -1.777502578     2.457683904

