187   

Si        0.000000000     0.000000000     0.000000000
 C        1.865162270     0.000000000     0.000000000
 C       -0.687935838     1.707192629     0.000000000
 C        0.125038180     2.818136697    -0.245006710
 C       -0.412525355     4.105445391    -0.241347969
 C       -1.773350196     4.310431698    -0.000464142
 C       -2.587527770     3.195661129     0.241872353
 C       -2.053388937     1.910422443     0.242948941
 C       -2.381544293     5.636472400     0.013566384
 C       -1.720696472     6.787325128    -0.198251623
 C       -2.337659997     8.109716743    -0.182291828
 C       -1.535330380     9.233314384    -0.418703196
 C       -2.082684204    10.514644298    -0.412746115
 C       -3.445640439    10.701525260    -0.158638489
 C       -4.249738302     9.579763034     0.078333112
 C       -3.701280629     8.299244950     0.061249571
Si       -4.208111786    12.374707085    -0.141440059
 C       -5.566041810    12.469602245     1.079902946
 C       -5.588334921    11.739516444     2.203338909
 C       -6.655661896    11.787892727     3.202837500
 C       -6.549987006    10.966493041     4.335400342
 C       -7.530067839    10.970869344     5.313589628
 C       -8.678333773    11.774357750     5.162395854
 C       -8.784889112    12.600110220     4.033025520
 C       -7.770109031    12.620298458     3.082364495
 N       -9.651708391    11.742669730     6.192443527
 C      -10.160384065    10.401044726     6.544553989
 C      -10.723819675    12.748344933     6.098436119
 C      -10.992012876     9.714143290     5.444591464
 C      -10.145364033     8.748793592     4.591206924
 N      -10.649305793     8.507021543     3.221178015
 C      -10.362951180     9.616689311     2.351115835
 C       -9.172897315     9.525188360     1.614003741
 C       -8.817226879    10.550247777     0.749533713
 C       -9.622390330    11.692024867     0.621764208
 C      -10.810268044    11.767652041     1.353937154
 C      -11.194209933    10.730636662     2.198008740
 C      -12.058948457     8.077820613     3.183492095
 C       -9.205862149    12.749477644    -0.304517413
 C       -9.898375191    13.877757500    -0.502471293
Si       -9.449112089    15.239572598    -1.634774640
 C      -10.885381536    15.672953889    -2.694045067
 C      -11.857832633    14.706738807    -2.980701290
 C      -12.950732877    15.024659317    -3.782680692
 C      -13.091246173    16.307758216    -4.327886179
 C      -12.114598279    17.267065900    -4.045244848
 C      -11.022117948    16.954387128    -3.237092819
 C      -14.254524437    16.591130104    -5.161928004
 C      -14.513168708    17.776868409    -5.738980662
 C      -15.677308318    18.057870851    -6.572740399
 C      -16.652301191    17.097453884    -6.853948824
 C      -17.749938300    17.408844640    -7.656277934
 C      -17.899525888    18.692521979    -8.190186549
 C      -16.923393720    19.658179932    -7.908709027
 C      -15.826222605    19.342775906    -7.112133196
Si      -19.342149682    19.119804521    -9.250851589
 C      -20.656327723    17.797390351    -9.187846454
 C      -20.051347232    20.780973294    -8.649891893
 C      -18.767986341    19.322535608   -11.054357942
 C       -8.884170037    16.709876564    -0.570665858
 C       -8.016989156    14.731986696    -2.779047550
 C       -2.933877344    13.726914882     0.250703564
 C       -4.937261159    12.694204327    -1.869697366
 C       -0.605084252    -0.926836540    -1.549079178
 C       -0.657553177    -0.903476568     1.541254621
 H        1.196285399     2.720133236    -0.441163062
 H        0.242288728     4.953955524    -0.431019390
 H       -3.650280456     3.333464789     0.432285611
 H       -2.737075454     1.080019288     0.441287084
 H       -3.457035196     5.642526722     0.215511169
 H       -0.645959933     6.784358741    -0.400653510
 H       -0.471632846     9.107422288    -0.611313783
 H       -1.408646687    11.352909130    -0.607795443
 H       -5.323132482     9.666471567     0.282443535
 H       -4.347579694     7.442565173     0.244746516
 H       -6.366445706    13.186961803     0.843490259
 H       -4.793243445    11.024492675     2.462292564
 H       -5.679772080    10.319948188     4.454608227
 H       -7.411576450    10.359353379     6.204460880
 H       -9.660960591    13.222143153     3.877562148
 H       -7.872264844    13.276625945     2.215000124
 H      -11.323668490    12.722435345     7.024195177
 H      -11.401461151    12.611193576     5.241139330
 H      -10.270877016    13.754460423     6.035493410
 H      -12.151495398     7.134205789     3.747881523
 H      -12.337362934     7.866519348     2.135979209
 H      -12.778414980     8.801021542     3.593343462
 H       -8.539467272     8.646294204     1.731664717
 H       -7.890536662    10.471263750     0.179541382
 H      -11.457041513    12.640262215     1.260743799
 H      -12.132994629    10.795621483     2.739699847
 H       -8.268171266    12.523651991    -0.830346578
 H      -10.835555356    14.072324581     0.047565819
 H      -11.796783040    13.686982860    -2.586071434
 H      -13.701345166    14.264000159    -3.989578251
 H      -12.200448243    18.271164837    -4.456319891
 H      -10.291786585    17.745831974    -3.048347695
 H      -14.935747605    15.745840647    -5.297955193
 H      -13.832391062    18.622352893    -5.603547063
 H      -16.561572218    16.091639830    -6.447725302
 H      -18.478802259    16.615093434    -7.841965749
 H      -16.988269232    20.678263815    -8.297800650
 H      -15.077855031    20.105669075    -6.905959783
 H       -9.296903738     9.763339119     6.837862170
 H      -10.774404997    10.513642901     7.467665828
 H      -11.836352843     9.166885774     5.899603897
 H      -11.451836623    10.482699529     4.794161217
 H       -9.100385006     9.130482750     4.500148684
 H      -10.075809267     7.757090498     5.090528404
 H        2.262369188    -1.030067767     0.039938370
 H        2.262247222     0.542643975     0.877101467
 H        2.274340646     0.479263689    -0.906642824
 H      -21.534839951    18.080196765    -9.794943433
 H      -21.007216659    17.636066403    -8.152388769
 H      -20.283842965    16.831698638    -9.572228717
 H      -19.215764770    21.532012578    -8.760127873
 C      -21.244408424    21.277347682    -9.485801231
 C      -20.458798774    20.744919247    -7.165805798
 H      -19.705190675    19.518820907   -11.651383305
 C      -17.809898937    20.507723077   -11.269677327
 C      -18.106888955    18.047359133   -11.609058527
 H       -8.582099126    17.521833501    -1.293054755
 C      -10.011455297    17.261911671     0.319640755
 C       -7.666164780    16.375369023     0.310318700
 H       -7.227120496    14.275292928    -2.111066232
 C       -8.448159344    13.670339125    -3.807040854
 C       -7.378800463    15.915447279    -3.526275066
 H       -2.140731749    13.654829061    -0.548209553
 C       -3.530178918    15.145905800     0.202347325
 C       -2.256607482    13.514235997     1.616142802
 H       -5.527340553    13.654776919    -1.788573028
 C       -3.867064280    12.888042440    -2.957384844
 C       -5.894906141    11.572735763    -2.309784747
 H       -0.098287746    -1.934533534    -1.517138923
 C       -2.126102279    -1.160007616    -1.577453704
 C       -0.189902310    -0.224881165    -2.855143128
 H       -1.782091038    -0.905398242     1.441985935
 C       -0.191149877    -2.366707372     1.641212300
 C       -0.302210778    -0.172865804     2.848887684
 H      -21.008568077    21.398742825   -10.550961782
 H      -21.567538610    22.265948281    -9.128271770
 H      -22.122527668    20.622444901    -9.410137721
 H      -19.636871256    20.450948148    -6.497311087
 H      -21.302714822    20.070729251    -6.968458442
 H      -20.778232304    21.744442636    -6.837958917
 H      -18.236292582    21.473428814   -10.970215138
 H      -17.562266212    20.600434708   -12.337305678
 H      -16.852583740    20.382988239   -10.744288189
 H      -18.758501546    17.165025754   -11.569641247
 H      -17.170377506    17.792441185   -11.092267152
 H      -17.845257933    18.188523692   -12.667598916
 H      -10.908144911    17.556616762    -0.242918600
 H       -9.669887064    18.166083685     0.843434542
 H      -10.326275996    16.554784916     1.099751850
 H       -6.790050633    16.044234232    -0.263153955
 H       -7.882703840    15.605085006     1.064936026
 H       -7.348669784    17.268478770     0.867156199
 H       -8.842687658    12.753030779    -3.348365588
 H       -7.588489641    13.367437765    -4.421775692
 H       -9.208472929    14.039128888    -4.510773185
 H       -6.951234097    16.673855702    -2.858185697
 H       -8.078655564    16.421820343    -4.205523201
 H       -6.549649784    15.559190796    -4.155206147
 H       -3.966672223    15.402201435    -0.771547200
 H       -2.742898034    15.889975131     0.390457990
 H       -4.297762206    15.312088153     0.971645444
 H       -1.756640938    12.540277511     1.709449929
 H       -2.957030824    13.606916769     2.459269525
 H       -1.479674218    14.274921895     1.776084702
 H       -3.197662432    13.736077067    -2.765174251
 H       -4.347018945    13.090604830    -3.925945077
 H       -3.241837338    11.996826177    -3.108335331
 H       -6.721578137    11.399347596    -1.607177543
 H       -5.383726313    10.611109971    -2.462416519
 H       -6.357531619    11.828370175    -3.274277211
 H       -2.496674122    -1.728063299    -0.714905206
 H       -2.399225101    -1.743990961    -2.468563337
 H       -2.699996887    -0.224631811    -1.638545225
 H        0.895099904    -0.091754959    -2.953741140
 H       -0.658532830     0.762375524    -2.976736000
 H       -0.505534375    -0.823672051    -3.721510166
 H       -0.470293655    -2.972739750     0.769646807
 H       -0.656301518    -2.849984000     2.512744857
 H        0.893828448    -2.461682982     1.781059368
 H       -0.656072344     0.867793516     2.874151270
 H        0.776293255    -0.160519567     3.054678093
 H       -0.774473983    -0.678213804     3.703353097

