187   

Si        0.000000000     0.000000000     0.000000000
 C        1.865343038     0.000000000     0.000000000
 C       -0.679967670     1.710576835     0.000000000
 C        0.139497375     2.815876403     0.249235596
 C       -0.389584787     4.106541040     0.246061250
 C       -1.748402776     4.321062449     0.001794444
 C       -2.569101139     3.212053641    -0.244491971
 C       -2.043330014     1.923198165    -0.246122146
 C       -2.346062919     5.652114886    -0.011456386
 C       -1.673805213     6.795488270     0.204553940
 C       -2.272558147     8.126071918     0.191057823
 C       -3.632117620     8.337699328    -0.053571597
 C       -4.163519397     9.627206667    -0.057278957
 C       -3.346077473    10.732540003     0.196365748
 C       -1.982254126    10.523813399     0.442859031
 C       -1.453175976     9.236491884     0.434653693
Si       -4.019759529    12.443182159     0.197756076
 C       -3.137759335    13.513785407     1.389006289
 C       -2.580319943    13.053913267     2.517374235
 C       -1.869138886    13.886677289     3.487986241
 C       -1.332031958    13.275191383     4.630828567
 C       -0.649535764    14.015593737     5.581708982
 C       -0.453681098    15.398735600     5.395138588
 C       -0.997506750    16.014932427     4.258429183
 C       -1.717718508    15.266174017     3.334040474
 N        0.252083791    16.108857054     6.400228816
 C        1.600318535    15.590059049     6.709959291
 C        0.219517390    17.577557319     6.293338590
 C        2.630738883    15.744689755     5.575027421
 C        2.754907727    14.464759649     4.724771060
 N        3.235907381    14.669239554     3.340208758
 C        2.195377957    15.189210885     2.493494128
 C        1.450492547    14.234902949     1.784638176
 C        0.426663868    14.645691510     0.943705472
 C        0.111263006    16.006163670     0.809330940
 C        0.866577482    16.948288380     1.512760877
 C        1.915923121    16.550085225     2.334915856
 C        4.494295078    15.433075485     3.264523728
 C       -0.979240245    16.391773576    -0.091613005
 C       -1.362653424    17.658202199    -0.294110318
Si       -2.707669836    18.217573415    -1.396862080
 C       -2.107017130    19.563456804    -2.492282251
 C       -0.753638283    19.629458051    -2.840765652
 C       -0.287031263    20.647028861    -3.671748669
 C       -1.162376871    21.609551515    -4.182885530
 C       -2.518414358    21.535921997    -3.837811633
 C       -2.987158337    20.525005938    -3.002506090
 C       -0.718931785    22.691765764    -5.055634560
 C        0.548768281    22.876579493    -5.461521026
 C        0.992456649    23.958626495    -6.334202370
 C        0.119538723    24.925085117    -6.840173466
 C        0.586741100    25.942888092    -7.671784476
 C        1.938769181    26.011246628    -8.021848755
 C        2.816123581    25.041602440    -7.517161221
 C        2.347919954    24.030310875    -6.683127127
Si        2.572576055    27.347405775    -9.118137510
 C        1.180107221    28.295764451    -9.919099512
 C        3.629851209    28.560054945    -8.100660496
 C        3.675956514    26.549370574   -10.448311024
 C       -3.321554419    16.796849494    -2.502031624
 C       -4.148344910    18.791693749    -0.297175409
 C       -3.763315495    13.162187140    -1.545643000
 C       -5.874082568    12.468253825     0.606858433
 C       -0.657813943    -0.899857854    -1.543062623
 C       -0.608837039    -0.926806730     1.547216507
 H        1.209585725     2.710869809     0.448362332
 H        0.270696454     4.950249814     0.438466919
 H       -3.630324765     3.357166300    -0.437678600
 H       -2.731799061     1.097544864    -0.447383866
 H       -3.420579350     5.668810276    -0.216324283
 H       -0.599327265     6.779311697     0.409356454
 H       -4.290447067     7.492631882    -0.246243264
 H       -5.233113460     9.729602486    -0.259279571
 H       -1.295551387    11.353305272     0.646264954
 H       -0.390903880     9.093027112     0.624271403
 H       -3.108469302    14.583132165     1.128606602
 H       -2.606903407    11.991913989     2.802539602
 H       -1.457167590    12.201994571     4.778583385
 H       -0.271245536    13.532895775     6.479311867
 H       -0.854871477    17.075936794     4.077329696
 H       -2.139025434    15.769525905     2.460576120
 H        0.657227449    18.013271946     7.207858413
 H       -0.832363208    17.913177525     6.246961892
 H        0.758452528    17.982948582     5.422656349
 H        5.272138875    14.880244940     3.818428142
 H        4.443821345    16.456622048     3.662621156
 H        4.813278608    15.486408958     2.208613448
 H        1.685559988    13.177786937     1.906175276
 H       -0.148585318    13.896835729     0.397655693
 H        0.646078083    18.011382045     1.414389048
 H        2.506866950    17.297566325     2.855600291
 H       -1.450390371    15.536964245    -0.595708446
 H       -0.867081620    18.492291035     0.232572126
 H       -0.023385114    18.900202022    -2.474322917
 H        0.771480103    20.683265765    -3.923272415
 H       -3.216171893    22.275827060    -4.225217258
 H       -4.054338319    20.518795082    -2.765180145
 H       -1.511322878    23.374771930    -5.375523570
 H        1.340717609    22.192721121    -5.141912556
 H       -0.938428981    24.892030757    -6.586481941
 H       -0.143824602    26.670817016    -8.035265179
 H        3.882934358    25.043658848    -7.758451659
 H        3.044597555    23.286668645    -6.300643092
 H        1.957309154    16.124882572     7.620077474
 H        1.505256946    14.522599803     7.009392158
 H        2.344804708    16.596217730     4.928282151
 H        3.616123355    16.009973719     5.996963721
 H        3.456224523    13.749811253     5.209048990
 H        1.768030293    13.946727672     4.663273654
 H        2.263094488    -1.029789000    -0.041226853
 H        2.274807589     0.478405092     0.906937339
 H        2.261617103     0.543604170    -0.876898779
 H        1.568546295    29.066480999   -10.608675579
 H        0.549419775    28.806813343    -9.170698306
 H        0.529182229    27.623304418   -10.506789266
 H        3.930711210    29.376955994    -8.818669979
 C        2.840323756    29.205177150    -6.946822223
 C        4.913869669    27.933074853    -7.528733071
 H        4.515313542    26.041608439    -9.889704649
 C        2.933630340    25.473577013   -11.261443086
 C        4.302937197    27.567208994   -11.417621581
 H       -3.503080458    15.918804652    -1.812143460
 C       -4.641495003    17.109587381    -3.227226259
 C       -2.269762430    16.377645207    -3.544809386
 H       -4.975325354    19.099162708    -1.000014318
 C       -4.686174456    17.672880407     0.614080424
 C       -3.782493361    20.010876235     0.567634241
 H       -4.047095522    14.254808625    -1.478374589
 C       -2.295585256    13.071250078    -1.999559532
 C       -4.655091290    12.507581362    -2.613923971
 H       -6.379515419    11.837117447    -0.179774168
 C       -6.178384937    11.849861049     1.982697026
 C       -6.483624861    13.881171500     0.545950146
 H       -1.782410965    -0.901015091    -1.444086813
 C       -0.301372823    -0.167483992    -2.849328229
 C       -0.192802064    -2.363398833    -1.645437996
 H       -0.102809518    -1.934945998     1.516302973
 C       -0.196220115    -0.225430713     2.854480962
 C       -2.130129139    -1.158775824     1.572002717
 H        1.946376879    29.748279056    -7.279367696
 H        3.469396138    29.940160654    -6.424366474
 H        2.523151222    28.476508760    -6.186901344
 H        5.575467744    27.515270321    -8.298025723
 H        4.711067163    27.143398985    -6.791669124
 H        5.502382308    28.698439803    -7.001797804
 H        2.504109641    24.677100369   -10.636922029
 H        3.628365080    24.978390029   -11.954775409
 H        2.122670656    25.884095815   -11.877480111
 H        4.912140634    28.328980508   -10.914123738
 H        3.557484955    28.087895405   -12.033173395
 H        4.974402507    27.051936777   -12.119885525
 H       -5.475353307    17.319081560    -2.545251549
 H       -4.951287343    16.245099293    -3.832700590
 H       -4.557944664    17.954333019    -3.925200982
 H       -1.312776654    16.069218360    -3.101475175
 H       -2.053044113    17.169503570    -4.276397393
 H       -2.635217615    15.519088670    -4.126228110
 H       -5.039694104    16.791728473     0.062038882
 H       -5.547514791    18.039427370     1.190445176
 H       -3.946906945    17.330277229     1.352896792
 H       -3.417401842    20.867288016    -0.016004843
 H       -3.025780996    19.782558599     1.331222148
 H       -4.669354347    20.368078907     1.110214717
 H       -1.590961671    13.556403541    -1.310265041
 H       -2.169670980    13.569708436    -2.971815155
 H       -1.957379042    12.034623681    -2.141977072
 H       -5.728437224    12.615469784    -2.412756623
 H       -4.447041817    11.436918766    -2.749781082
 H       -4.478488217    12.978299499    -3.592099236
 H       -5.825436047    10.814244807     2.084212579
 H       -7.263610252    11.822381517     2.153978459
 H       -5.749526191    12.427134812     2.815095812
 H       -6.373875850    14.361054697    -0.435086955
 H       -6.064784120    14.558959517     1.303555425
 H       -7.564032699    13.832177760     0.743593457
 H       -0.653489185     0.873839994    -2.872696984
 H       -0.774319788    -0.670298663    -3.704876700
 H        0.777167341    -0.156457055    -3.055049509
 H       -0.475622102    -2.971464630    -0.776469985
 H        0.892476049    -2.459458674    -1.782080240
 H       -0.655622098    -2.843647498    -2.519872138
 H        0.888521211    -0.091455310     2.954868258
 H       -0.512791992    -0.825232654     3.719817904
 H       -0.665849751     0.761351429     2.975972011
 H       -2.499461960    -1.724210257     0.707192831
 H       -2.703264204    -0.223018294     1.634163709
 H       -2.405652352    -1.744925700     2.460938529

