187   

Si        0.000000000     0.000000000     0.000000000
 C        1.865314890     0.000000000     0.000000000
 C       -0.668155726     1.715663523     0.000000000
 C        0.108803545     2.782927355     0.462776991
 C       -0.398035485     4.082011396     0.462420811
 C       -1.693219109     4.343874978     0.007596665
 C       -2.472452042     3.272916909    -0.449564488
 C       -1.968888332     1.974752951    -0.451448139
 C       -2.263616972     5.686952618    -0.010456225
 C       -1.621554849     6.794365572     0.398671613
 C       -2.186961610     8.139359003     0.382805608
 C       -3.481640504     8.408191188    -0.070791705
 C       -3.981067599     9.709838938    -0.067942052
 C       -3.190629215    10.772719014     0.382767246
 C       -1.893406938    10.507182291     0.838266974
 C       -1.400932520     9.204564738     0.841266488
Si       -3.841292833    12.493640995     0.390139859
 C       -2.451005665    13.675773718     0.478550771
 C       -2.340237566    14.698332427     1.336600614
 C       -1.204366855    15.621141244     1.369417352
 C       -1.197933913    16.657352643     2.314668023
 C       -0.146948603    17.556343696     2.386415191
 C        0.924608534    17.478244372     1.469758099
 C        0.918176411    16.439297095     0.519908018
 C       -0.121089497    15.518308174     0.492818824
 N        1.982491779    18.399223013     1.557984502
 C        1.639610216    19.775940623     1.954934203
 C        3.011745257    18.342901979     0.507666269
 C        0.597085276    20.446227466     1.036231203
 C        0.743428711    21.979147779     1.027502370
 N        1.474867538    22.519235468    -0.142337764
 C        2.774620260    21.964957984    -0.304352069
 C        3.713729391    22.204244759     0.718872036
 C        4.996321913    21.691293406     0.619610877
 C        5.395567540    20.959474021    -0.509940856
 C        4.468287996    20.747413497    -1.531946171
 C        3.173215762    21.247556882    -1.440853814
 C        0.640482365    22.550623995    -1.356862841
 C        6.763500820    20.439350252    -0.564040779
 C        7.255381400    19.729258658    -1.587899154
Si        8.963551272    19.078571528    -1.657752665
 C       10.144874071    20.142778689    -0.734900657
 C        9.948949861    21.529692209    -0.697896818
 C       10.834868281    22.348894461    -0.003248685
 C       11.943515156    21.806242565     0.659991100
 C       12.140541599    20.423370893     0.614026400
 C       11.252987313    19.599439111    -0.077206112
 C       12.843716780    22.705346828     1.374604011
 C       13.936328467    22.313989354     2.052016985
 C       14.837380692    23.211864246     2.767038800
 C       14.643146564    24.594619814     2.814847977
 C       15.530379903    25.415772169     3.510839051
 C       16.636364381    24.870389353     4.170167516
 C       16.833604372    23.483528964     4.123164976
 C       15.943642173    22.666142621     3.432287695
Si       17.816924514    25.939919211     5.093192568
 C       17.558787429    27.745113708     4.700771347
 C       17.577816629    25.680977763     6.963751672
 C       19.585961941    25.411724901     4.629627747
 C        8.959646567    17.316130812    -0.941073163
 C        9.502725836    18.999594559    -3.479647377
 C       -4.804836940    12.810107952    -1.220221421
 C       -5.025182747    12.708186425     1.862674139
 C       -0.650885408    -0.914574198    -1.537720016
 C       -0.629191752    -0.910254839     1.548285893
 H        1.128753411     2.641010616     0.830867107
 H        0.228864135     4.895338481     0.823694645
 H       -3.484139022     3.454431881    -0.807294786
 H       -2.624019309     1.179974164    -0.818503192
 H       -3.286983499     5.745030677    -0.391843813
 H       -0.597798976     6.734234225     0.780342629
 H       -4.112946326     7.598153259    -0.430541926
 H       -5.001146577     9.858978902    -0.432072760
 H       -1.233613309    11.300552321     1.205323447
 H       -0.391763749     9.015620605     1.202650362
 H       -1.670426197    13.482332426    -0.276372131
 H       -3.102101604    14.923948652     2.094094053
 H       -2.027595807    16.752063308     3.015713926
 H       -0.152490017    18.324300795     3.154310219
 H        1.724416662    16.340281344    -0.199974909
 H       -0.092393984    14.712669009    -0.242758493
 H        3.808509315    19.079894881     0.723055583
 H        2.625341952    18.554934192    -0.502222855
 H        3.489460259    17.347140941     0.514945486
 H       -0.244708024    23.180797533    -1.159241308
 H        0.293752091    21.562649832    -1.697517219
 H        1.201417521    23.034808464    -2.175437596
 H        3.426893614    22.803004241     1.580927956
 H        5.709972231    21.873446944     1.424407193
 H        4.756136584    20.186200564    -2.421942178
 H        2.475649392    21.059827492    -2.251680714
 H        7.360528799    20.697053186     0.322380354
 H        6.634294032    19.478458512    -2.461413253
 H        9.103155624    22.009552812    -1.201846097
 H       10.663111709    23.423496583     0.020216613
 H       12.994160265    19.976208032     1.120069969
 H       11.460340301    18.525844683    -0.077577453
 H       12.567861422    23.762830699     1.326142569
 H       14.212104957    21.256388872     2.100120178
 H       13.792241203    25.044558095     2.306675594
 H       15.325622820    26.489953426     3.513134019
 H       17.680931008    23.001430077     4.619074889
 H       16.112698577    21.591249347     3.408354905
 H        1.273623728    19.756367425     3.006254624
 H        2.581684335    20.372286454     1.977459011
 H        0.693840661    20.048263170     0.007510921
 H       -0.421453953    20.157719626     1.354997655
 H       -0.260019622    22.459872597     1.052964939
 H        1.266248545    22.332404872     1.944505523
 H        2.263543752    -1.028651876    -0.059318171
 H        2.276805005     0.463444771     0.913547142
 H        2.259158954     0.559492747    -0.868144226
 H       18.297828599    28.376298879     5.226046032
 H       16.553921916    28.089751117     5.001629408
 H       17.670831240    27.935166596     3.617810682
 H       18.281947086    26.407130879     7.464044230
 C       16.146117966    26.009187196     7.425766895
 C       17.937010080    24.263011279     7.442586684
 H       19.676823560    24.330053561     4.939782765
 C       19.845926872    25.489904060     3.114311947
 C       20.677672434    26.206749863     5.367711889
 H       10.014955089    16.932026241    -1.048545941
 C        8.590052186    17.294761296     0.552916999
 C        8.025560001    16.355752727    -1.698760652
 H        8.757731063    18.329623269    -3.998049380
 C        9.459241251    20.379546486    -4.160079013
 C       10.903745540    18.392482871    -3.667802559
 H       -5.664941964    12.079903727    -1.216951783
 C       -5.387221426    14.232016844    -1.303049446
 C       -3.957945023    12.539805589    -2.476671835
 H       -5.307515824    13.800733989     1.876015829
 C       -6.319262357    11.884998498     1.732750672
 C       -4.356684480    12.367634826     3.207260520
 H       -1.775843067    -0.917616807    -1.443963431
 C       -0.288956426    -0.194740735    -2.849498461
 C       -0.183550732    -2.378552231    -1.624431517
 H       -0.158960382    -1.935204470     1.515066976
 C       -0.191017661    -0.226065605     2.856128275
 C       -2.158239006    -1.086356778     1.571284130
 H       15.837869462    27.037177163     7.195802242
 H       16.068722707    25.902503334     8.517319585
 H       15.393270493    25.332355498     6.996748960
 H       18.973875958    23.978221948     7.223754138
 H       17.278077049    23.490826257     7.021301714
 H       17.825462816    24.196517050     8.534768511
 H       19.134242474    24.898206921     2.520880570
 H       20.844077732    25.092122156     2.881885317
 H       19.824972507    26.517294034     2.727348271
 H       20.599792017    26.141170568     6.460642812
 H       20.690066412    27.270692835     5.096379322
 H       21.670364028    25.811974667     5.106438194
 H        9.249579180    17.915190339     1.175576148
 H        8.669425878    16.271617467     0.946841375
 H        7.556289329    17.619103153     0.742407023
 H        8.272920677    16.255745441    -2.763214199
 H        6.966875392    16.641333772    -1.624586264
 H        8.101090320    15.344890736    -1.272013426
 H        8.470349101    20.856028878    -4.119502896
 H        9.710928941    20.282478601    -5.225848715
 H       10.186759300    21.087524823    -3.736989732
 H       10.988451052    17.365434574    -3.290330472
 H       11.696692651    18.989634576    -3.194637899
 H       11.153423412    18.347109279    -4.737939869
 H       -6.077279677    14.468082137    -0.482839082
 H       -5.962212080    14.350045624    -2.232448876
 H       -4.611803303    15.011389840    -1.320065121
 H       -3.541575686    11.523037446    -2.510275405
 H       -3.122951147    13.244758345    -2.589904478
 H       -4.576826381    12.647400878    -3.378652501
 H       -6.909406579    12.137747801     0.842864100
 H       -6.972750300    12.074199933     2.596817748
 H       -6.137503224    10.801054695     1.720289508
 H       -3.441724013    12.943846353     3.402272289
 H       -4.097539501    11.302561176     3.295699311
 H       -5.043229580    12.587153937     4.036787523
 H       -0.638292359     0.847149292    -2.883960364
 H       -0.759223783    -0.704853219    -3.702131813
 H        0.790500272    -0.187582949    -3.051072877
 H       -0.470658624    -2.979121362    -0.751662550
 H        0.902545833    -2.474729981    -1.754183743
 H       -0.641056367    -2.867156164    -2.497001926
 H        0.897969045    -0.134008138     2.956940931
 H       -0.530556495    -0.814304809     3.720759938
 H       -0.623569987     0.777453437     2.978548302
 H       -2.543777746    -1.656987900     0.716962927
 H       -2.697986446    -0.129326462     1.608339941
 H       -2.459020912    -1.642145256     2.471318054

