187   

Si        0.000000000     0.000000000     0.000000000
 C        1.865199977     0.000000000     0.000000000
 C       -0.674676737     1.712921003     0.000000000
 C        0.114001851     2.793884857    -0.407153118
 C       -0.402400112     4.089429084    -0.405101501
 C       -1.718165080     4.333694307    -0.002776445
 C       -2.508740811     3.248913050     0.399530199
 C       -1.995976036     1.954550139     0.399089507
 C       -2.300143883     5.671726411     0.015388708
 C       -1.651576463     6.792487769    -0.344165246
 C       -2.231681062     8.131274902    -0.326716460
 C       -3.547830669     8.376996783     0.075546250
 C       -4.061834859     9.672814203     0.076771376
 C       -3.265227028    10.753064117    -0.318514694
 C       -1.946699433    10.510869693    -0.722660427
 C       -1.439286441     9.213880137    -0.729881343
Si       -3.938504838    12.464782324    -0.318740006
 C       -2.566287757    13.671993139    -0.334200452
 C       -2.445445686    14.711154105    -1.170551556
 C       -1.327577002    15.656183255    -1.148758423
 C       -1.309170433    16.707593365    -2.075583624
 C       -0.273991339    17.628560055    -2.096435561
 C        0.766523532    17.558286319    -1.145218230
 C        0.747356830    16.502543895    -0.213419447
 C       -0.272259457    15.560148009    -0.237324809
 N        1.815644827    18.496020157    -1.170609903
 C        1.506199968    19.838311375    -1.694384685
 C        2.698008678    18.538477974     0.008448217
 C        0.475656442    20.595727112    -0.841693655
 C        0.074850448    21.913240209    -1.524454536
 N       -0.860287481    22.719635861    -0.719665362
 C       -0.390342013    23.198885558     0.517843154
 C        0.976030801    23.511272418     0.683384808
 C        1.447071721    23.983493004     1.897911859
 C        0.579008240    24.210476038     2.974889270
 C       -0.779069419    23.931007150     2.799632015
 C       -1.264932130    23.441270862     1.594428145
 C       -2.233734591    22.187370972    -0.747960225
 C        1.129458402    24.710022691     4.236197349
 C        0.395112011    24.961728681     5.327618722
Si        1.028366376    25.584817103     6.924887756
 C        0.026656413    27.027043272     7.472536489
 C       -0.745324759    27.743260909     6.549755693
 C       -1.504055778    28.835367380     6.963586915
 C       -1.501192834    29.244568969     8.303366956
 C       -0.724161540    28.530764664     9.220560906
 C        0.032727966    27.433977733     8.811152438
 C       -2.312852982    30.394787217     8.687413277
 C       -2.403248920    30.886092766     9.934975304
 C       -3.215228095    32.036404992    10.317984644
 C       -3.991773357    32.749759160     9.401352285
 C       -4.753519874    33.844092187     9.811034921
 C       -4.759070820    34.245656147    11.150480980
 C       -3.981412642    33.531283906    12.072105528
 C       -3.218516410    32.442592809    11.659358246
Si       -5.758871336    35.687600278    11.707277762
 C       -6.976727245    36.224073162    10.400119619
 C       -6.677918322    35.195881942    13.300103156
 C       -4.602072556    37.147327884    12.100551265
 C        0.888192629    24.192124558     8.214225796
 C        2.851283408    26.108465552     6.786596452
 C       -5.070269456    12.689805520    -1.830334146
 C       -4.965482221    12.737906001     1.260057466
 C       -0.623905085    -0.913894891    -1.548497628
 C       -0.652409298    -0.912476167     1.538360965
 H        1.150288755     2.665786611    -0.731984331
 H        0.233379382     4.913729412    -0.723267946
 H       -3.536476063     3.416804976     0.715888307
 H       -2.660366478     1.148355020     0.722289838
 H       -3.339777199     5.713915497     0.352849875
 H       -0.611849270     6.749303725    -0.682015460
 H       -4.184674877     7.553105583     0.391697490
 H       -5.098347872     9.803287044     0.399628837
 H       -1.281239147    11.318422946    -1.045312564
 H       -0.413393241     9.043189545    -1.050942112
 H       -1.809577381    13.479247759     0.444756854
 H       -3.184436478    14.935217530    -1.950856300
 H       -2.116125871    16.799326075    -2.803262255
 H       -0.275942244    18.408609798    -2.851867914
 H        1.532266006    16.403836098     0.529807754
 H       -0.251374822    14.741925222     0.484917966
 H        3.459360308    19.326534658    -0.117114937
 H        3.242107898    17.579892697     0.088568945
 H        2.159378811    18.725254327     0.952243313
 H       -2.477675409    21.825998534    -1.761081441
 H       -2.943367880    23.003776778    -0.521689846
 H       -2.399283731    21.360896720    -0.037121458
 H        1.672577687    23.378065132    -0.139029496
 H        2.511012810    24.195294263     2.008774655
 H       -1.478577253    24.099518144     3.620556269
 H       -2.327433442    23.239036844     1.503303229
 H        2.215654905    24.865261776     4.201509738
 H       -0.694123694    24.787930596     5.331214270
 H       -0.781025183    27.472621838     5.489307135
 H       -2.102865271    29.377278276     6.233925909
 H       -0.704470173    28.828187408    10.267252096
 H        0.618838683    26.913426645     9.573462413
 H       -2.869117742    30.856264872     7.866084176
 H       -1.847174875    30.424868710    10.756356484
 H       -4.007733087    32.455683654     8.353463173
 H       -5.340202288    34.362765485     9.047779799
 H       -3.947195024    33.798858793    13.132012574
 H       -2.620100523    31.901089464    12.389540139
 H        2.456695318    20.415247140    -1.759337413
 H        1.150023293    19.733378441    -2.744670350
 H       -0.419125280    19.964837772    -0.673585972
 H        0.885190028    20.796398397     0.167303802
 H        0.974167266    22.531388766    -1.747352169
 H       -0.400123733    21.711606682    -2.511543420
 H        2.263131483    -1.028786444     0.059775709
 H        2.260027693     0.559797612     0.867477438
 H        2.276074750     0.462530386    -0.914344206
 H       -7.602463707    37.060921075    10.758568410
 H       -7.655682832    35.395757475    10.127557896
 H       -6.468028185    36.560022306     9.479578112
 H       -5.876878098    34.929872037    14.049770013
 C       -7.523511108    36.334366494    13.897890105
 C       -7.570435549    33.956660512    13.106217392
 H       -5.279309302    38.008605379    12.370186683
 C       -3.663454938    36.888163701    13.292525864
 C       -3.753189761    37.569141894    10.887115233
 H        1.318940421    24.608663439     9.170319772
 C       -0.571314429    23.787501587     8.487787483
 C        1.694650557    22.937787338     7.834759567
 H        3.396647312    25.220017337     6.354571600
 C        3.047598834    27.303046422     5.835214271
 C        3.495301848    26.447145224     8.142980671
 H       -5.368276166    13.778214864    -1.834590847
 C       -4.347486985    12.383508501    -3.154880735
 C       -6.355982228    11.846256909    -1.763777641
 H       -5.812116169    11.993527108     1.212960277
 C       -4.160265997    12.460095976     2.541962276
 C       -5.575033862    14.148179781     1.344998977
 H       -0.147395084    -1.935975687    -1.514627443
 C       -2.151715022    -1.099906685    -1.573562732
 C       -0.188688109    -0.227358689    -2.856083088
 H       -1.777027405    -0.919802320     1.440963006
 C       -0.179782669    -2.374324910     1.631085443
 C       -0.297722906    -0.186932961     2.848974245
 H       -6.939052240    37.233694579    14.131472458
 H       -7.976193515    36.007642138    14.845431491
 H       -8.356209435    36.635761029    13.248672405
 H       -7.021163523    33.080556825    12.732580658
 H       -8.411320006    34.135575352    12.423162169
 H       -8.011313013    33.655276585    14.067108592
 H       -4.195000361    36.656159546    14.224014413
 H       -3.062332210    37.785897996    13.498618954
 H       -2.945930023    36.077700640    13.101757675
 H       -4.352436163    37.853720494    10.012718177
 H       -3.048050358    36.788420950    10.567181159
 H       -3.143820803    38.448413637    11.141003929
 H       -1.203703597    24.627856671     8.807486072
 H       -0.611236022    23.047781958     9.299989206
 H       -1.055573006    23.318588348     7.620311604
 H        2.767341199    23.131852172     7.707348981
 H        1.331740512    22.458208321     6.914367786
 H        1.610994660    22.181832562     8.628565988
 H        2.649470116    27.132250246     4.825656158
 H        4.118613004    27.516917982     5.713171414
 H        2.590247277    28.228391306     6.214804592
 H        3.487253767    25.608668650     8.850815751
 H        3.025756926    27.309849255     8.636417381
 H        4.551963331    26.716379006     7.999778234
 H       -3.432934478    12.973604026    -3.304364151
 H       -5.004915477    12.611128505    -4.005540036
 H       -4.072336786    11.323302603    -3.253658522
 H       -6.984068052    12.076526374    -0.893928939
 H       -6.159019475    10.764891434    -1.761038080
 H       -6.977976991    12.039886883    -2.649857692
 H       -3.727054246    11.450324017     2.573746200
 H       -4.813986161    12.540690446     3.422089043
 H       -3.343096804    13.177548874     2.698501087
 H       -6.235285147    14.388697212     0.501945956
 H       -4.814515909    14.939720469     1.408395234
 H       -6.189332588    14.238858297     2.252212392
 H       -2.534656723    -1.673546443    -0.720086260
 H       -2.447387134    -1.657323941    -2.474314960
 H       -2.697682724    -0.146527144    -1.611538376
 H        0.899793956    -0.128136155    -2.955699875
 H       -0.627452450     0.773328990    -2.979328947
 H       -0.523273904    -0.817965664    -3.720995613
 H       -0.458563094    -2.977832033     0.757672755
 H       -0.641070960    -2.863099471     2.501603100
 H        0.905855509    -2.465671634     1.768163222
 H       -0.652718348     0.853186678     2.879231713
 H        0.781040758    -0.173635422     3.053796609
 H       -0.768097714    -0.696988220     3.701643275

