187   

Si        0.000000000     0.000000000     0.000000000
 C        1.865127521     0.000000000     0.000000000
 C       -0.671403306     1.714453339     0.000000000
 C        0.095974512     2.780923559    -0.480144424
 C       -0.414000972     4.078880857    -0.479464654
 C       -1.702483755     4.340205422    -0.005689763
 C       -2.472320487     3.269938111     0.468824209
 C       -1.966056044     1.972904178     0.469113409
 C       -2.276855897     5.681486552     0.013935125
 C       -1.646211336     6.789380785    -0.411246422
 C       -2.218597435     8.131384714    -0.392527859
 C       -3.506560126     8.395242087     0.080643133
 C       -4.014051206     9.694571970     0.080115887
 C       -3.248536952    10.755568730    -0.411321659
 C       -1.957221318    10.493666957    -0.890595670
 C       -1.448934870     9.198236579    -0.876007981
Si       -3.877480175    12.483908940    -0.431211190
 C       -3.312191536    13.365235800    -1.929762562
 C       -3.074152927    12.752336856    -3.097070659
 C       -2.621748225    13.428612196    -4.312208285
 C       -2.411632558    12.660962160    -5.466106267
 C       -1.983535712    13.243484282    -6.647245645
 C       -1.694620216    14.624792864    -6.699142325
 C       -1.908020221    15.395643217    -5.540453939
 C       -2.390639180    14.804917640    -4.379967554
 N       -1.260708728    15.202514539    -7.905911810
 C       -0.460570159    14.351411511    -8.809266718
 C       -0.792380145    16.596456002    -7.840631079
 C        0.732444342    13.625246209    -8.159866373
 C        2.007108491    14.487656234    -8.079125734
 N        2.731890698    14.394695751    -6.790414223
 C        2.035675504    15.059766220    -5.732094548
 C        2.090439389    16.464930995    -5.744180771
 C        1.443975179    17.189668336    -4.756254174
 C        0.741428515    16.539453675    -3.730103257
 C        0.709345688    15.143075694    -3.713868131
 C        1.361490582    14.403183475    -4.696506529
 C        3.172322647    13.023840820    -6.478493312
 C        0.080716530    17.365406006    -2.717588285
 C       -0.623831627    16.888823717    -1.682718970
Si       -1.424224957    17.984912942    -0.452993469
 C       -1.910387153    19.585176040    -1.217211983
 C       -2.389038323    19.597431459    -2.534928679
 C       -2.763957675    20.794285290    -3.137746327
 C       -2.681895363    22.005877321    -2.438049061
 C       -2.211180599    21.989154481    -1.122450675
 C       -1.830364171    20.791652666    -0.516625277
 C       -3.086718897    23.234118014    -3.113636552
 C       -3.053795569    24.458776253    -2.561272600
 C       -3.459067815    25.686161879    -3.238441293
 C       -3.929538987    25.701290395    -4.553954347
 C       -4.306479140    26.898118901    -5.163035221
 C       -4.226346240    28.107443688    -4.465403889
 C       -3.755085246    28.094960472    -3.145474154
 C       -3.374407685    26.899519050    -2.542255431
Si       -4.720119324    29.695232394    -5.255506196
 C       -5.667040289    29.408899294    -6.836869643
 C       -5.787930717    30.671343667    -4.018204601
 C       -3.163735209    30.717662312    -5.649827519
 C       -2.998515017    17.123462245     0.175509871
 C       -0.232370581    18.244286563     1.002876397
 C       -5.777358302    12.510690367    -0.364936649
 C       -3.199300831    13.404107369     1.089174877
 C       -0.628873728    -0.908474786    -1.549614322
 C       -0.649438472    -0.918194444     1.536188697
 H        1.110787725     2.639303152    -0.862168606
 H        0.205007764     4.891637123    -0.855001850
 H       -3.478872995     3.451057938     0.841221749
 H       -2.614123271     1.178498699     0.849528019
 H       -3.294384136     5.737948740     0.411535101
 H       -0.628529638     6.732168257    -0.808649107
 H       -4.125980538     7.584433544     0.459335103
 H       -5.024755078     9.839718272     0.471015041
 H       -1.314375410    11.286956060    -1.288603022
 H       -0.443155699     9.013799467    -1.248541891
 H       -3.192807473    14.453287415    -1.815484631
 H       -3.195092636    11.667226991    -3.231348524
 H       -2.599642601    11.586621084    -5.441771021
 H       -1.875525865    12.627937135    -7.535019583
 H       -1.694243107    16.460808010    -5.533043101
 H       -2.560995853    15.432214053    -3.502241978
 H       -0.474737853    16.937798282    -8.838760598
 H        0.044240550    16.746427814    -7.135299440
 H       -1.634252070    17.244492312    -7.533649988
 H        3.853961505    12.685953992    -7.278236918
 H        2.360377992    12.287251778    -6.381227126
 H        3.750432800    13.036710973    -5.537555115
 H        2.655448469    16.970647992    -6.524879063
 H        1.492479522    18.278863954    -4.772916786
 H        0.164787930    14.615470989    -2.928373331
 H        1.317713316    13.317962234    -4.664177095
 H        0.212887112    18.443328707    -2.896884200
 H       -0.739189426    15.808647659    -1.509405116
 H       -2.478435261    18.680578956    -3.128603952
 H       -3.128216935    20.786140420    -4.163433002
 H       -2.138001872    22.916127202    -0.556698870
 H       -1.469832204    20.842268567     0.514336262
 H       -3.435200034    23.096871139    -4.141516406
 H       -2.705962137    24.596666359    -1.533260101
 H       -4.005790763    24.773169644    -5.117381883
 H       -4.666302434    26.846437793    -6.194352263
 H       -3.671498274    29.009359664    -2.551190830
 H       -3.009416414    26.910160217    -1.516932325
 H       -1.160803772    13.597284092    -9.244668172
 H       -0.116600999    14.965657191    -9.670025358
 H        0.448128525    13.287132140    -7.140641434
 H        0.943440372    12.696907636    -8.720820191
 H        2.722843753    14.194827492    -8.878987130
 H        1.767314912    15.558960436    -8.258222680
 H        2.263401749    -1.028442830     0.063063005
 H        2.259210721     0.562791194     0.865993274
 H        2.276548050     0.460158831    -0.915198709
 H       -5.997253263    30.364545146    -7.281901644
 H       -6.570514150    28.799553656    -6.652576983
 H       -5.055110946    28.884901939    -7.591771202
 H       -5.133390750    30.846589564    -3.115292307
 C       -6.239028734    32.044574685    -4.546595222
 C       -7.025125430    29.880389887    -3.556177329
 H       -3.533436401    31.644651334    -6.176322511
 C       -2.382395817    31.159637276    -4.399549223
 C       -2.199985113    29.982004383    -6.598929141
 H       -2.677474893    16.079792119     0.465976216
 C       -3.611201715    17.793384044     1.417115600
 C       -4.080157113    17.015923328    -0.913210341
 H       -0.770763438    18.914268199     1.733972709
 C        0.125477343    16.937035402     1.732774851
 C        1.066978965    18.949808818     0.575323459
 H       -6.064400227    11.964574264     0.579580932
 C       -6.367020988    13.930450983    -0.287753200
 C       -6.412167889    11.773952895    -1.558000137
 H       -3.627845800    14.448305564     1.034093714
 C       -3.642665203    12.780644218     2.423183737
 C       -1.663982664    13.511690484     1.071810464
 H       -0.157385450    -1.932918303    -1.518870415
 C       -2.157685019    -1.086350769    -1.571756592
 C       -0.192402757    -0.221338809    -2.856486420
 H       -1.774415509    -0.923090194     1.442725535
 C       -0.179688336    -2.381620742     1.619725761
 C       -0.288131218    -0.200401587     2.849231501
 H       -5.403417746    32.697328934    -4.830468469
 H       -6.796937360    32.582059416    -3.765891122
 H       -6.914125956    31.970973717    -5.409472221
 H       -6.776448905    28.904723229    -3.114433749
 H       -7.747607108    29.702906459    -4.363787703
 H       -7.562586088    30.441289612    -2.778265169
 H       -2.978539072    31.762680260    -3.703055839
 H       -1.528101818    31.786944931    -4.693481571
 H       -1.960931554    30.313353957    -3.838887370
 H       -2.658323641    29.703031413    -7.556385566
 H       -1.776226113    29.069880727    -6.154542853
 H       -1.345995617    30.629480688    -6.844750907
 H       -2.929716599    17.827698332     2.276545763
 H       -4.495369891    17.230310282     1.750270669
 H       -3.957254942    18.818578082     1.225150489
 H       -3.735339243    16.524156500    -1.833209841
 H       -4.494353798    17.993650942    -1.199398178
 H       -4.928802229    16.421475489    -0.544062707
 H       -0.748828458    16.413788858     2.141717247
 H        0.781487271    17.152474791     2.588571704
 H        0.675536421    16.228989670     1.096960857
 H        0.899254194    19.922483773     0.092763662
 H        1.676787522    18.343074722    -0.110099606
 H        1.696760802    19.147704233     1.454153050
 H       -6.022300853    14.498484405     0.585732165
 H       -7.462327752    13.877689428    -0.204764326
 H       -6.157200253    14.527351577    -1.186895438
 H       -6.087253492    10.728598891    -1.651331805
 H       -6.210767119    12.267725607    -2.520201911
 H       -7.505334393    11.747342355    -1.448187597
 H       -4.732261558    12.754558588     2.551794267
 H       -3.248527559    13.369667036     3.264011645
 H       -3.266764647    11.757238708     2.564508410
 H       -1.267044330    13.979259873     0.159771083
 H       -1.168682729    12.536720936     1.186173729
 H       -1.319621056    14.129852629     1.913240936
 H       -2.541313405    -1.662806176    -0.720409108
 H       -2.458872553    -1.637064731    -2.474783380
 H       -2.699021931    -0.130003576    -1.602306436
 H        0.896425039    -0.128345059    -2.958008270
 H       -0.625889718     0.782005895    -2.976581854
 H       -0.532140382    -0.808080812    -3.722038195
 H       -0.464514965    -2.980434867     0.745013954
 H       -0.637682857    -2.873341390     2.490347410
 H        0.906393460    -2.476339137     1.750792619
 H       -0.638571756     0.841022367     2.885961865
 H        0.791384572    -0.192413627     3.050694124
 H       -0.757684488    -0.712898036     3.700906836

