187   

Si        0.000000000     0.000000000     0.000000000
 C        1.865113582     0.000000000     0.000000000
 C       -0.681703618     1.709940345     0.000000000
 C        0.115465674     2.804089090    -0.350898878
 C       -0.411124230     4.095694558    -0.347580358
 C       -1.745286355     4.322265333     0.000143191
 C       -2.544156586     3.224334495     0.346938943
 C       -2.021254656     1.934246683     0.345610588
 C       -2.339844152     5.654553559     0.017929898
 C       -1.688671842     6.788964657    -0.290482394
 C       -2.287568297     8.119466097    -0.271283764
 C       -1.494769925     9.221688438    -0.615701607
 C       -2.024379167    10.510422257    -0.611219121
 C       -3.357784678    10.726896454    -0.247781524
 C       -4.151917240     9.626714030     0.099122658
 C       -3.622403797     8.338179535     0.082432719
Si       -4.097582988    12.410046773    -0.227908081
 C       -5.299723470    12.582929332     1.139024442
 C       -5.192443628    11.908280576     2.291892321
 C       -6.132207575    12.019088609     3.407554830
 C       -5.899010260    11.252817604     4.559411043
 C       -6.755637654    11.318109942     5.645440787
 C       -7.908064951    12.128561984     5.591948474
 C       -8.141006463    12.899766306     4.442608520
 C       -7.246276668    12.860121066     3.378991072
 N       -8.754154543    12.163240442     6.727099060
 C       -9.198346865    10.851376137     7.239661363
 C       -9.840489232    13.157320026     6.694677702
 C      -10.173601647    10.092335878     6.319916533
 C       -9.448739958     9.089718138     5.400273283
 N      -10.131550956     8.791763710     4.121914822
 C       -9.944316228     9.849888877     3.164369974
 C       -8.881871517     9.677865241     2.264784197
 C       -8.626553746    10.647725733     1.306294301
 C       -9.401632067    11.815438720     1.244417286
 C      -10.462854686    11.971862395     2.140154833
 C      -10.751454208    10.988587244     3.081045208
 C      -11.541123508     8.394526353     4.288698811
 C       -9.093912358    12.811858081     0.213864203
 C       -9.767675246    13.958841144     0.064748162
Si       -9.444381506    15.245855223    -1.191523140
 C      -11.003290445    15.698463980    -2.050402167
 C      -12.099509813    14.830058424    -2.029942274
 C      -13.284059282    15.171623905    -2.681330310
 C      -13.394360383    16.378591256    -3.377219598
 C      -12.291816996    17.243371594    -3.401677750
 C      -11.109505107    16.908820189    -2.746621064
 C      -14.613734341    16.776648316    -4.072866270
 C      -15.737854057    16.042324000    -4.126565644
 C      -16.957701940    16.439373709    -4.821862656
 C      -17.072715754    17.648435218    -5.512554661
 C      -18.258601349    17.987948873    -6.163692759
 C      -19.355183338    17.120596376    -6.142748344
 C      -19.242101594    15.906716468    -5.451262272
 C      -18.058983646    15.572935807    -4.798172288
Si      -20.927539850    17.553248352    -6.996853882
 C      -20.709633069    19.011504118    -8.139427841
 C      -21.510349872    16.029839770    -7.978230649
 C      -22.255872523    17.983863270    -5.703290008
 C       -8.676240591    16.740899147    -0.303858063
 C       -8.217698843    14.617242642    -2.502581000
 C       -2.774484803    13.761651879    -0.056218504
 C       -5.021593972    12.658975512    -1.872454607
 C       -0.617516514    -0.919144253    -1.548185165
 C       -0.653040398    -0.909581077     1.539877951
 H        1.166036120     2.689436188    -0.631763004
 H        0.231242522     4.930705187    -0.621259241
 H       -3.586277769     3.378784467     0.620414610
 H       -2.692637783     1.117342774     0.624872586
 H       -3.394134929     5.680174412     0.309434385
 H       -0.634861382     6.764704467    -0.582490178
 H       -0.453014162     9.073045135    -0.893254803
 H       -1.359692695    11.330703960    -0.894815335
 H       -5.201750410     9.737713046     0.393727979
 H       -4.260140318     7.498407942     0.353044136
 H       -6.117335753    13.298274809     0.963604565
 H       -4.378148376    11.195058564     2.488520146
 H       -5.026023367    10.600705881     4.606778416
 H       -6.535377731    10.748901169     6.544851118
 H       -9.024207767    13.525540305     4.360064771
 H       -7.445927414    13.474636344     2.498022177
 H      -10.342265566    13.177772057     7.676969910
 H      -10.601081294    12.972440247     5.919676299
 H       -9.405705036    14.160662227     6.533275303
 H      -11.578059306     7.492796656     4.923290562
 H      -11.950459455     8.121677362     3.299902428
 H      -12.192947867     9.160332519     4.732852716
 H       -8.267510422     8.780225484     2.331599718
 H       -7.800509432    10.505317713     0.608416964
 H      -11.085623358    12.865651294     2.101389061
 H      -11.596245504    11.114896487     3.751290584
 H       -8.255184461    12.522701495    -0.434091165
 H      -10.601643286    14.219067317     0.739442014
 H      -12.069009841    13.868294820    -1.507269726
 H      -14.126286511    14.482866472    -2.645441816
 H      -12.357533998    18.188116421    -3.937912231
 H      -10.283659946    17.623655883    -2.796947118
 H      -14.559804258    17.749134314    -4.570878012
 H      -15.791211011    15.069171960    -3.629371639
 H      -16.232496964    18.339539038    -5.547546333
 H      -18.288497265    18.947705288    -6.686898693
 H      -20.065879443    15.189022458    -5.401642178
 H      -17.990679616    14.626140934    -4.265655793
 H       -8.299423089    10.231171487     7.452725432
 H       -9.676929282    11.031348392     8.230162399
 H      -10.926102501     9.561361929     6.929587025
 H      -10.744952662    10.816681308     5.708877408
 H       -8.425492096     9.461547539     5.153915895
 H       -9.311585007     8.118782123     5.926184371
 H        2.262565621    -1.029230144     0.055814763
 H        2.260848086     0.556209879     0.869296655
 H        2.275608990     0.465657186    -0.912987856
 H      -21.647314466    19.239096514    -8.677311641
 H      -19.933271136    18.807141435    -8.899007501
 H      -20.412555182    19.921780999    -7.589730420
 H      -21.663687440    15.211400176    -7.215916096
 C      -22.845669079    16.246049423    -8.712178839
 C      -20.456431969    15.540587326    -8.987979702
 H      -23.165406980    18.295807120    -6.293886097
 C      -22.654387899    16.797308302    -4.807631950
 C      -21.842997180    19.163526404    -4.803944855
 H       -8.459040457    17.503134972    -1.106465001
 C       -9.638624762    17.382145155     0.711398559
 C       -7.352159928    16.400155466     0.404602179
 H       -7.358311916    14.154822041    -1.931455669
 C       -8.838476130    13.529211905    -3.397472631
 C       -7.646251696    15.729909189    -3.397720719
 H       -2.073604380    13.630282860    -0.930296322
 C       -3.357798510    15.185250315    -0.124357932
 C       -1.955143693    13.618063646     1.238595406
 H       -5.578343174    13.637377305    -1.772509316
 C       -4.085638154    12.770326429    -3.087988589
 C       -6.046944318    11.542080318    -2.136337160
 H       -0.128826588    -1.935583221    -1.515651258
 C       -2.142850660    -1.123970571    -1.572611108
 C       -0.191854358    -0.226277535    -2.855602457
 H       -1.777641137    -0.916059999     1.442103233
 C       -0.181297217    -2.371445697     1.635570820
 C       -0.298490343    -0.181359159     2.849039971
 H      -23.668325167    16.531826624    -8.044030937
 H      -23.158989369    15.313079288    -9.203036299
 H      -22.780751339    17.002524894    -9.505461225
 H      -19.485357450    15.312540752    -8.525452927
 H      -20.275491492    16.256329821    -9.800800776
 H      -20.794848960    14.609807675    -9.465106902
 H      -23.040546580    15.937322448    -5.369193406
 H      -23.458047964    17.099643487    -4.120288159
 H      -21.828170649    16.444388713    -4.174477581
 H      -21.619936235    20.081418872    -5.362891846
 H      -20.969777329    18.936148729    -4.175578036
 H      -22.661082868    19.415492223    -4.113947195
 H      -10.596985144    17.689605219     0.270490199
 H       -9.190804648    18.294061189     1.131488072
 H       -9.860371115    16.726688196     1.565108703
 H       -6.585091809    15.999284834    -0.271479613
 H       -7.480173743    15.682440002     1.228091856
 H       -6.922010979    17.306953858     0.853238225
 H       -9.188972218    12.651063945    -2.837486796
 H       -8.095194752    13.162629860    -4.119730870
 H       -9.685350945    13.896538776    -3.995116230
 H       -7.102064840    16.502654713    -2.839974494
 H       -8.414482657    16.229839067    -4.003711834
 H       -6.926156442    15.304070928    -4.112003133
 H       -3.888267026    15.393930808    -1.062293456
 H       -2.547691577    15.925795117    -0.059560198
 H       -4.041227277    15.406603864     0.707819313
 H       -1.459383846    12.642516076     1.337004213
 H       -2.558835185    13.773296872     2.145021685
 H       -1.156737164    14.372725145     1.267198182
 H       -3.380767738    13.608709385    -3.021053889
 H       -4.673871460    12.937099803    -4.002073826
 H       -3.501100482    11.856496712    -3.264809387
 H       -6.779155017    11.416462088    -1.326887287
 H       -5.575413802    10.563970370    -2.310287677
 H       -6.625312332    11.767749582    -3.044268575
 H       -2.519592149    -1.696025558    -0.715340781
 H       -2.430937494    -1.691542660    -2.469528006
 H       -2.700135389    -0.177564509    -1.618334071
 H        0.895217579    -0.113279237    -2.956070022
 H       -0.642988842     0.769027817    -2.977744300
 H       -0.519756941    -0.820321594    -3.720723584
 H       -0.458942857    -2.976207356     0.762652740
 H       -0.644149885    -2.858682347     2.506127953
 H        0.904094112    -2.463025774     1.774472585
 H       -0.655471483     0.858132009     2.877737601
 H        0.780331129    -0.165929488     3.053257570
 H       -0.767579425    -0.690714664     3.702854228

