187   

Si        0.000000000     0.000000000     0.000000000
 C        1.865177465     0.000000000     0.000000000
 C       -0.690178807     1.706073148     0.000000000
 C        0.122024468     2.819677223    -0.235171443
 C       -0.418648221     4.105731815    -0.231370349
 C       -1.781643691     4.306851855     0.000372195
 C       -2.594885086     3.189301103     0.233091542
 C       -2.057837832     1.905316008     0.233724740
 C       -2.393521844     5.631161677     0.014252754
 C       -1.734872304     6.784770281    -0.189112940
 C       -2.356144211     8.105207182    -0.173251004
 C       -1.555687963     9.232155495    -0.400308275
 C       -2.107034659    10.511434930    -0.394082302
 C       -3.472746914    10.694480104    -0.147706794
 C       -4.274339196     9.569530490     0.079927866
 C       -3.721781587     8.290245502     0.061443081
Si       -4.234242114    12.369295563    -0.131986253
 C       -5.633306129    12.471991522     1.040261971
 C       -5.730039896    11.749469838     2.164615353
 C       -6.850831594    11.833016962     3.101878267
 C       -6.838122896    11.023723590     4.247121416
 C       -7.874293276    11.064628220     5.165575247
 C       -9.001201853    11.883524435     4.936475293
 C       -9.016998137    12.691907911     3.783983245
 C       -7.945678812    12.677322547     2.900077617
 N      -10.047246701    11.915872756     5.877867671
 C      -10.335464705    10.658985275     6.594982109
 C      -11.268121878    12.641946381     5.486504074
 C      -10.697038447     9.493029240     5.657076465
 C      -11.490223326     8.377832431     6.357943994
 N      -12.805847958     8.770253350     6.916024639
 C      -13.511048591     9.743368863     6.172169901
 C      -13.729253651     9.495904461     4.799948449
 C      -14.414311285    10.416834021     4.026562884
 C      -14.932020261    11.592999221     4.591435203
 C      -14.737926824    11.820128951     5.955206761
 C      -14.047930222    10.906802349     6.745280571
 C      -12.791390434     8.942159658     8.377735563
 C      -15.648678597    12.533598352     3.727776764
 C      -16.183036535    13.683628087     4.157732132
Si      -17.086582350    14.895546665     3.131161351
 C      -16.391294778    16.572607204     3.427426930
 C      -15.083061468    16.714407063     3.907103296
 C      -14.549895928    17.980759984     4.133780448
 C      -15.303899594    19.132982193     3.875505323
 C      -16.606553689    18.986965125     3.389681107
 C      -17.145821209    17.720861283     3.166207684
 C      -14.701467434    20.437762153     4.128962615
 C      -15.316453107    21.615691594     3.928608110
 C      -14.715230802    22.920992131     4.181629452
 C      -13.413691128    23.070819796     4.667129592
 C      -12.878937833    24.338875927     4.894668297
 C      -13.638970824    25.486245829     4.647118194
 C      -14.945151799    25.338542594     4.160878417
 C      -15.474000495    24.071897707     3.929387993
Si      -12.948038131    27.167046471     4.942201771
 C      -11.373233619    27.096634543     5.939275411
 C      -12.577799465    28.000592831     3.271394520
 C      -14.260366520    28.199660724     5.856006549
 C      -16.939340966    14.481105125     1.281557106
 C      -18.923667310    14.863605663     3.622596091
 C       -2.936391219    13.677441409     0.341159920
 C       -4.886037655    12.758940336    -1.876287750
 C       -0.602342813    -0.928613145    -1.549152633
 C       -0.656984865    -0.903856228     1.541371537
 H        1.194877289     2.724537815    -0.423758077
 H        0.235588786     4.956372281    -0.413347378
 H       -3.659222025     3.324079877     0.416206192
 H       -2.741136961     1.072860880     0.424501183
 H       -3.470443175     5.633571880     0.208296623
 H       -0.658738636     6.785800665    -0.383758693
 H       -0.490528831     9.110044776    -0.586280705
 H       -1.434272908    11.352168689    -0.583357525
 H       -5.349217092     9.652591565     0.275038847
 H       -4.367382301     7.431640168     0.236611701
 H       -6.408708401    13.202103851     0.763044253
 H       -4.964934704    11.021346086     2.470080284
 H       -5.991265308    10.360571814     4.428891676
 H       -7.813005879    10.457654007     6.063888601
 H       -9.861122426    13.340579559     3.571538473
 H       -7.975879023    13.327001230     2.024170713
 H      -12.014473864    12.594103044     6.299098357
 H      -11.745750620    12.246205468     4.574440210
 H      -11.024447667    13.708874201     5.336080062
 H      -12.389479646     8.023779130     8.841366933
 H      -13.828892737     9.050914336     8.742891682
 H      -12.198734826     9.799833703     8.732132087
 H      -13.360553270     8.574230129     4.355522104
 H      -14.564014610    10.216488970     2.965001867
 H      -15.136376807    12.723867484     6.419627275
 H      -13.918519228    11.117228425     7.802247760
 H      -15.705559550    12.204302100     2.682198392
 H      -16.116047978    13.980209490     5.218315650
 H      -14.446595267    15.849330779     4.121057838
 H      -13.533813097    18.073126157     4.513124713
 H      -17.213193054    19.866144354     3.180799241
 H      -18.170050765    17.668948324     2.786973728
 H      -13.675874694    20.402447917     4.508026666
 H      -16.342052506    21.650695141     3.549586843
 H      -12.802858326    22.193427570     4.871925474
 H      -11.854632058    24.392510922     5.273968445
 H      -15.586059466    26.199314929     3.950046100
 H      -16.489758430    23.977584482     3.550179516
 H       -9.452734628    10.400196604     7.221353304
 H      -11.164851104    10.858632774     7.310452666
 H      -11.270369490     9.879955724     4.789809642
 H       -9.775297044     9.066065995     5.215070121
 H      -11.693014322     7.559788342     5.624224390
 H      -10.871710029     7.923068631     7.161719866
 H        2.262485568    -1.030113374     0.037158202
 H        2.262450896     0.540316017     0.878459758
 H        2.274362064     0.481739204    -0.905359153
 H      -10.988444211    28.110873918     6.148267321
 H      -10.578234085    26.542158313     5.410532900
 H      -11.542016106    26.599319796     6.911754072
 H      -12.106227434    28.993966843     3.524705619
 C      -11.574876466    27.198733153     2.421791289
 C      -13.834316504    28.271905586     2.424952757
 H      -15.156609830    28.236493888     5.170557641
 C      -14.705904130    27.549482708     7.178319722
 C      -13.819165798    29.647919985     6.132628503
 H      -17.280621684    13.410692483     1.174875806
 C      -17.834292587    15.357659890     0.387640986
 C      -15.488860932    14.575748306     0.773228377
 H      -19.438345384    15.607591673     2.947890565
 C      -19.580835188    13.489508249     3.404600767
 C      -19.152830376    15.305062758     5.079055748
 H       -2.128412413    13.614930231    -0.443679650
 C       -3.492783436    15.112516194     0.335547363
 C       -2.296902602    13.395534776     1.712535392
 H       -5.327491334    13.795623317    -1.819885185
 C       -3.781683602    12.766641616    -2.947452965
 C       -5.998859286    11.788736142    -2.311978204
 H       -0.090070850    -1.933625592    -1.517965853
 C       -2.122043158    -1.170386012    -1.576570223
 C       -0.192149129    -0.223704312    -2.855161524
 H       -1.781587438    -0.904095612     1.442797125
 C       -0.192329990    -2.367682420     1.640166919
 C       -0.299637294    -0.174412679     2.849107344
 H      -10.612762576    27.032444538     2.923238662
 H      -11.347329656    27.742863058     1.493871881
 H      -11.964004036    26.217231852     2.114812413
 H      -14.569315514    28.912632441     2.928295645
 H      -14.345991084    27.350331645     2.113602787
 H      -13.556547799    28.794640424     1.497958823
 H      -15.085458557    26.525359275     7.052219772
 H      -15.527034576    28.127979951     7.625164062
 H      -13.906698062    27.515399369     7.930604933
 H      -13.552485764    30.202314273     5.223534285
 H      -12.969322388    29.711985572     6.825074395
 H      -14.641143053    30.206953653     6.603165141
 H      -18.903390563    15.266564375     0.618139293
 H      -17.721973200    15.058443451    -0.664761386
 H      -17.569967852    16.423803374     0.430712793
 H      -14.783831498    13.945772665     1.332610119
 H      -15.097591227    15.603333858     0.793128025
 H      -15.433893961    14.246645625    -0.274009536
 H      -19.534937224    13.144913288     2.363474813
 H      -20.647840647    13.536863731     3.665661632
 H      -19.145300804    12.701228182     4.035330774
 H      -18.742549401    16.299911277     5.303071418
 H      -18.734171177    14.600565932     5.810755755
 H      -20.230294838    15.363555696     5.289693095
 H       -3.897279642    15.419632633    -0.637184537
 H       -2.691351685    15.826842222     0.573355242
 H       -4.276597479    15.269537060     1.090043481
 H       -1.824138559    12.405917011     1.779591217
 H       -3.015028609    13.474288516     2.541991250
 H       -1.505703301    14.129798506     1.918972528
 H       -2.992912837    13.505035849    -2.755085871
 H       -4.209632421    13.023391448    -3.927316527
 H       -3.299568586    11.786406209    -3.072159949
 H       -6.855311096    11.769951218    -1.624158543
 H       -5.642941881    10.754765177    -2.427150359
 H       -6.396906801    12.086893168    -3.292168546
 H       -2.488478180    -1.741773066    -0.714465637
 H       -2.392564561    -1.754637817    -2.468286527
 H       -2.701310389    -0.238256087    -1.635863066
 H        0.891950066    -0.083647836    -2.954234720
 H       -0.666966375     0.760714549    -2.975984060
 H       -0.504445760    -0.824082964    -3.721610045
 H       -0.472978366    -2.972916053     0.768530108
 H       -0.657247711    -2.850813210     2.511885803
 H        0.892678615    -2.464015510     1.778903340
 H       -0.651747703     0.866828806     2.875019611
 H        0.779050631    -0.163955259     3.054102058
 H       -0.772140769    -0.679332753     3.703658470

