187   

Si        0.000000000     0.000000000     0.000000000
 C        1.865168074     0.000000000     0.000000000
 C       -0.683411911     1.709226258     0.000000000
 C        0.126578289     2.813419493     0.283184128
 C       -0.405144924     4.103049569     0.279545264
 C       -1.757433492     4.317069357     0.000913430
 C       -2.568832523     3.209230953    -0.278693549
 C       -2.040432285     1.921527053    -0.279315871
 C       -2.358742336     5.646395809    -0.014542898
 C       -1.697818209     6.790445332     0.231350324
 C       -2.304600528     8.117474631     0.214488261
 C       -1.500568243     9.231256697     0.489198755
 C       -2.037033142    10.516767679     0.484155028
 C       -3.390933956    10.719017739     0.192194397
 C       -4.196277310     9.607629240    -0.083110166
 C       -3.658655573     8.321906463    -0.066643565
Si       -4.129520436    12.402600487     0.177332085
 C       -5.459824165    12.548177392    -1.070634508
 C       -5.493009300    11.849698079    -2.213235981
 C       -6.555531153    11.963124121    -3.214501789
 C       -6.475724886    11.174880261    -4.373632274
 C       -7.454300842    11.244512626    -5.350932772
 C       -8.534673575    12.137762023    -5.207379170
 C       -8.621266953    12.923387160    -4.049828609
 C       -7.649224874    12.817025699    -3.059762736
 N       -9.505819965    12.160511578    -6.246675053
 C       -8.964211258    12.615031060    -7.549105708
 C      -10.781125871    12.818772265    -5.911217383
 C       -8.296304126    14.001669418    -7.512154193
 C       -6.760262497    13.894523167    -7.415360363
 N       -6.122076149    15.070824968    -6.798918246
 C       -6.365918628    16.316237744    -7.403520839
 C       -6.485582810    16.398646000    -8.808377538
 C       -6.725729106    17.616737471    -9.421510147
 C       -6.807085747    18.801867115    -8.675314456
 C       -6.656615985    18.722901775    -7.288642011
 C       -6.431908699    17.507030625    -6.655518327
 C       -6.134418296    15.025223841    -5.327732742
 C       -7.062856958    20.060830796    -9.375737551
 C       -7.161447359    21.253285392    -8.772444681
Si       -7.481200628    22.823959183    -9.652062397
 C       -6.804989644    22.802234888   -11.362735517
 C       -5.629809276    22.089294079   -11.635368109
 C       -5.103822372    22.061895097   -12.924008584
 C       -5.729404489    22.754977432   -13.968840624
 C       -6.896555755    23.472074459   -13.692081911
 C       -7.428513812    23.498066526   -12.403234457
 C       -5.139845345    22.695821903   -15.302227678
 C       -5.639646259    23.308849955   -16.388650141
 C       -5.049287368    23.249072233   -17.721711587
 C       -3.882355941    22.532003603   -17.997998061
 C       -3.352095692    22.501773583   -19.287756129
 C       -3.976026646    23.194330986   -20.330008426
 C       -5.146494919    23.914765026   -20.055459841
 C       -5.676097963    23.938897783   -18.768363682
Si       -3.289461254    23.164871519   -22.037671610
 C       -1.565633110    22.453006493   -22.073264967
 C       -4.408650895    22.105086006   -23.154631867
 C       -3.279866049    24.947430813   -22.705374615
 C       -9.357565771    23.137223034    -9.689351762
 C       -6.646009518    24.232620679    -8.683663431
 C       -4.869754754    12.767963667     1.890109839
 C       -2.800369042    13.707332026    -0.209880529
 C       -0.655338250    -0.903186304    -1.542349886
 C       -0.611711344    -0.925267757     1.547026696
 H        1.191135967     2.708262719     0.510042683
 H        0.247379672     4.946374936     0.498027896
 H       -3.624930829     3.354162610    -0.498585119
 H       -2.721346171     1.096526294    -0.507225921
 H       -3.427677210     5.660987707    -0.248003221
 H       -0.629500905     6.777500420     0.465483094
 H       -0.444233093     9.093799712     0.712124905
 H       -1.361823513    11.346246462     0.711015938
 H       -5.262268844     9.706244350    -0.315286626
 H       -4.306556736     7.473450124    -0.279744626
 H       -6.244266629    13.279084521    -0.822354732
 H       -4.716767533    11.120707102    -2.487226474
 H       -5.636903190    10.489265156    -4.502671172
 H       -7.402805971    10.601251764    -6.227071687
 H       -9.443419715    13.619341816    -3.911979231
 H       -7.744722213    13.423729247    -2.158351929
 H      -11.517012693    12.578450659    -6.699063514
 H      -10.718721597    13.914012230    -5.817065567
 H      -11.173921602    12.400675902    -4.967976693
 H       -5.908927850    13.999302124    -4.980135968
 H       -7.097838055    15.323523880    -4.884362995
 H       -5.333831575    15.677438281    -4.935633295
 H       -6.391899819    15.503987366    -9.416990751
 H       -6.836892353    17.654818528   -10.506050885
 H       -6.714087395    19.629237267    -6.684212315
 H       -6.322031027    17.491101502    -5.576069602
 H       -7.160301154    19.937046795   -10.464090967
 H       -7.068877588    21.350749890    -7.680485858
 H       -5.095882510    21.532686904   -10.857196447
 H       -4.194180638    21.496566190   -13.118260777
 H       -7.402014503    24.019314254   -14.485363583
 H       -8.343461945    24.076352416   -12.248959173
 H       -4.226608747    22.097347022   -15.372022825
 H       -6.552758527    23.907177905   -16.319188436
 H       -3.375317663    21.987079380   -17.203742436
 H       -2.437542818    21.922536469   -19.442337726
 H       -5.677087470    24.475444616   -20.830232537
 H       -6.587017260    24.502291708   -18.575233810
 H       -8.249352250    11.839896851    -7.905500890
 H       -9.799744638    12.611274058    -8.284329324
 H       -8.573221884    14.587144188    -8.408559634
 H       -8.685200234    14.590457621    -6.659108806
 H       -6.468922287    12.994754124    -6.824504976
 H       -6.317426095    13.744497713    -8.425847236
 H        2.262327738    -1.029774761    -0.048242402
 H        2.275460334     0.472076707     0.909838923
 H        2.261659928     0.549334809    -0.873218757
 H       -1.143971409    22.481889932   -23.093904980
 H       -1.549978202    21.401435955   -21.737078676
 H       -0.885844845    23.027170590   -21.417671828
 H       -3.892927468    22.071610275   -24.157769981
 C       -4.551461435    20.659756022   -22.643074800
 C       -5.814880964    22.695180185   -23.361914311
 H       -4.355899620    25.288662282   -22.690435955
 C       -2.470197985    25.906049311   -21.813531777
 C       -2.770624758    25.058392028   -24.153436795
 H       -9.498857295    24.136779513   -10.192866987
 C      -10.109268991    22.075696274   -10.512541671
 C       -9.987070545    23.218890480    -8.287265628
 H       -7.098260716    24.211963657    -7.650423565
 C       -5.127358383    24.023441715    -8.545202045
 C       -6.906461060    25.621613545    -9.292021705
 H       -5.291145226    13.812931503     1.832887056
 C       -6.018968457    11.807689771     2.245361405
 C       -3.823704897    12.735745235     3.017898448
 H       -2.023718122    13.614103817     0.603134583
 C       -2.111775037    13.453075266    -1.562892383
 C       -3.340056548    15.148497254    -0.188967633
 H       -1.780142191    -0.903930252    -1.445841589
 C       -0.295946814    -0.173345543    -2.849272729
 C       -0.190755362    -2.367038246    -1.641054322
 H       -0.113552280    -1.937228828     1.513463644
 C       -0.191650263    -0.229651829     2.854866656
 C       -2.134734595    -1.145467919     1.573149705
 H       -3.592769289    20.134231291   -22.545641335
 H       -5.155089528    20.068794982   -23.346702979
 H       -5.064125706    20.599124976   -21.672212246
 H       -5.805685982    23.702278672   -23.797545929
 H       -6.402215695    22.733614779   -22.433702603
 H       -6.386792911    22.065543728   -24.059078234
 H       -2.818432698    25.926043090   -20.770793580
 H       -2.560968083    26.936024441   -22.186959226
 H       -1.396598920    25.676181022   -21.799206184
 H       -3.348830558    24.454877949   -24.864978609
 H       -1.714065492    24.778486493   -24.258633502
 H       -2.848075356    26.099303329   -24.499826407
 H       -9.757282661    21.997920252   -11.550637055
 H      -11.177774757    22.326350181   -10.567505589
 H      -10.050283873    21.071096723   -10.068856407
 H       -9.556780193    24.011414237    -7.661865736
 H       -9.913085505    22.274145036    -7.730512626
 H      -11.060409528    23.442645423    -8.369750936
 H       -4.859890526    23.071570427    -8.066020706
 H       -4.692363464    24.816295496    -7.920472122
 H       -4.600631308    24.068871153    -9.509406403
 H       -7.970630076    25.886535270    -9.332896837
 H       -6.495536968    25.728981751   -10.306213465
 H       -6.420487222    26.396908747    -8.682102642
 H       -6.837715692    11.815890154     1.513151850
 H       -6.464643159    12.093043341     3.208978019
 H       -5.685567866    10.765861937     2.358911448
 H       -3.015431661    13.466027332     2.883963360
 H       -3.362556409    11.745826856     3.146605159
 H       -4.299410123    12.977992921     3.979432125
 H       -1.649339073    12.459057212    -1.638270303
 H       -1.302262028    14.180481363    -1.717383472
 H       -2.794378994    13.564895938    -2.418068944
 H       -3.781028619    15.435187062     0.774158521
 H       -4.088890621    15.336178256    -0.971161311
 H       -2.520410246    15.858532494    -0.372520914
 H       -0.649033961     0.867551670    -2.875867098
 H       -0.765897022    -0.678462058    -3.705125348
 H        0.783143616    -0.161688666    -3.052105435
 H       -0.476855444    -2.973606485    -0.772078853
 H        0.894898670    -2.464070372    -1.773969596
 H       -0.650963464    -2.848465424    -2.516242302
 H        0.894538962    -0.107725777     2.955176341
 H       -0.514495083    -0.826800173     3.719780909
 H       -0.650635722     0.761955804     2.977666964
 H       -2.508544675    -1.710771967     0.710143041
 H       -2.700898691    -0.205206396     1.632309832
 H       -2.414628959    -1.726723250     2.463926147

