187   

Si        0.000000000     0.000000000     0.000000000
 C        1.865687414     0.000000000     0.000000000
 C       -0.658080166     1.718329182     0.000000000
 C        0.096996135     2.761341383    -0.546643644
 C       -0.394822764     4.065376919    -0.550240390
 C       -1.644823484     4.359253349     0.002154163
 C       -2.401150610     3.313354861     0.546288599
 C       -1.918682891     2.007036748     0.537693619
 C       -2.195305596     5.709298508     0.018491918
 C       -1.571907832     6.788089812    -0.484804618
 C       -2.117163722     8.140327578    -0.471412471
 C       -1.357518736     9.174492065    -1.032577200
 C       -1.835296722    10.482446605    -1.043721131
 C       -3.087321525    10.783416120    -0.495259839
 C       -3.850774254     9.750174564     0.060445300
 C       -3.370926690     8.442035721     0.067151177
Si       -3.736440005    12.504238206    -0.500018395
 C       -4.821858477    12.801922335     0.944948636
 C       -4.655902612    12.169093084     2.115216198
 C       -5.488953235    12.364734752     3.301980376
 C       -5.192502308    11.629180215     4.457080163
 C       -5.945705325    11.770924184     5.613344078
 C       -7.073359953    12.610783931     5.629331088
 C       -7.384913361    13.337885345     4.461237024
 C       -6.593367025    13.222241503     3.327651985
 N       -7.873189799    12.791932466     6.773473992
 C       -7.512532816    12.114673890     8.028478875
 C       -9.324670230    12.862856568     6.529519053
 C       -8.031750732    10.669901731     8.160965061
 C       -6.907091878     9.646470295     8.416560395
 N       -7.182307975     8.293558266     7.874028683
 C       -7.404143941     8.346031675     6.457342785
 C       -6.263814786     8.455376214     5.645150100
 C       -6.401305405     8.511347825     4.266391159
 C       -7.670251121     8.461628267     3.670235343
 C       -8.797491625     8.341948134     4.485550549
 C       -8.671764673     8.272526151     5.868772320
 C       -8.230232739     7.586347748     8.632634573
 C       -7.764914232     8.523996999     2.210525323
 C       -8.921420681     8.484840856     1.535306839
Si       -9.006254829     8.564845374    -0.289255779
 C       -7.491143194     7.825358722    -1.021610053
 C       -7.043473705     6.595510600    -0.516764422
 C       -5.902325855     5.994031738    -1.036612313
 C       -5.192436083     6.593326500    -2.086654610
 C       -5.644926311     7.813602772    -2.593253213
 C       -6.782235478     8.425269964    -2.064524630
 C       -4.003668965     5.918528499    -2.592201150
 C       -3.217360893     6.374631702    -3.581381418
 C       -2.031952977     5.676020269    -4.066837575
 C       -1.611977532     4.454583209    -3.532177471
 C       -0.474613903     3.815168112    -4.020365068
 C        0.275582642     4.389339081    -5.053283249
 C       -0.137266311     5.617111330    -5.583904218
 C       -1.274135535     6.254795603    -5.092052997
Si        1.773019747     3.519391016    -5.675963637
 C        1.464930747     1.683019727    -5.788198120
 C        2.269307992     4.201263995    -7.381149820
 C        3.202641656     3.845107784    -4.460255721
 C      -10.527685945     7.615521774    -0.911999079
 C       -9.164588053    10.412643647    -0.733495589
 C       -2.278478836    13.725995392    -0.365590040
 C       -4.641815670    12.843490854    -2.136212361
 C       -0.631544629    -0.887370731    -1.561064862
 C       -0.657388579    -0.928235199     1.524646565
 H        1.086639236     2.594154063    -0.982104725
 H        0.207409234     4.858653135    -0.991951546
 H       -3.377384010     3.520396779     0.980400037
 H       -2.556385178     1.231121023     0.968643320
 H       -3.180755732     5.801867795     0.484553235
 H       -0.588553592     6.695208015    -0.956579357
 H       -0.384606968     8.955511175    -1.468241267
 H       -1.199280950    11.247719603    -1.495271636
 H       -4.844578862     9.925121028     0.488459458
 H       -3.990616461     7.650821392     0.488609934
 H       -5.610230281    13.552768762     0.802069583
 H       -3.860821433    11.423886322     2.274732185
 H       -4.347561673    10.938884323     4.457497188
 H       -5.679700763    11.187411344     6.489444385
 H       -8.240230073    14.006391744     4.449788769
 H       -6.846898855    13.805686358     2.442283217
 H       -9.885993610    12.766437771     7.471933929
 H       -9.681788921    12.086363152     5.832480030
 H       -9.567201768    13.854305576     6.104764830
 H       -7.851738633     7.401122802     9.653139505
 H       -8.413831749     6.601178389     8.169923887
 H       -9.186828802     8.123480363     8.708889423
 H       -5.278420186     8.485626577     6.107296870
 H       -5.511864474     8.597339635     3.640295623
 H       -9.791912521     8.298331478     4.041437167
 H       -9.561887545     8.170440026     6.482167367
 H       -6.785317090     8.599176934     1.715661963
 H       -9.890814048     8.422947229     2.049097551
 H       -7.559342423     6.080733636     0.300477859
 H       -5.563606322     5.043466293    -0.629315010
 H       -5.105337380     8.301355020    -3.402853703
 H       -7.088822476     9.380150188    -2.499485059
 H       -3.772341214     4.969072004    -2.095578311
 H       -3.433106792     7.323397517    -4.078580553
 H       -2.174031552     3.987784995    -2.722356555
 H       -0.199490138     2.861000228    -3.559280959
 H        0.409977348     6.114710956    -6.388174092
 H       -1.576440330     7.210981344    -5.513983654
 H       -6.408339500    12.164809669     8.157051612
 H       -7.928011533    12.740624259     8.854710307
 H       -8.784115975    10.608509039     8.965687339
 H       -8.578072892    10.397143642     7.233955790
 H       -5.950431251     9.987448790     7.957025665
 H       -6.708568579     9.548763258     9.505029045
 H        2.262744375    -1.028711523     0.062712713
 H        2.258425401     0.560674686     0.867957657
 H        2.279994796     0.461836433    -0.913141838
 H        2.335655927     1.158309566    -6.218609917
 H        0.594500011     1.471358567    -6.436018044
 H        1.259580339     1.238434153    -4.798333190
 H        2.400508818     5.314164452    -7.245702682
 C        3.601400103     3.634105126    -7.904945403
 C        1.181577089     3.978111455    -8.447856239
 H        4.085928189     3.271982009    -4.863564226
 C        3.593329507     5.331881610    -4.376838263
 C        2.908983399     3.332988093    -3.038149055
 H      -11.424662470     8.140741044    -0.472906181
 C      -10.659690441     7.640984103    -2.445239807
 C      -10.554382550     6.152334552    -0.434453717
 H       -8.821162394    10.513115234    -1.802490133
 C      -10.604587626    10.950245892    -0.650281812
 C       -8.264530868    11.291428603     0.154666820
 H       -1.637500889    13.551296122    -1.276580426
 C       -2.723838840    15.198814650    -0.370738871
 C       -1.414464686    13.468541305     0.881711162
 H       -5.151262376    13.841689680    -2.011710739
 C       -3.685530308    12.942244234    -3.340123791
 C       -5.715066379    11.790119932    -2.455933109
 H       -0.208380615    -1.931697157    -1.513417850
 C       -2.166165748    -0.993808844    -1.615675021
 C       -0.137528098    -0.229717065    -2.862386266
 H       -1.782356593    -0.924361098     1.430079329
 C       -0.198829164    -2.395975063     1.593969109
 C       -0.292165117    -0.227225515     2.845684735
 H        4.450329362     3.833943485    -7.238387634
 H        3.853254506     4.098348872    -8.869622111
 H        3.565640877     2.551802028    -8.086066355
 H        0.201235833     4.387320851    -8.165715879
 H        1.036436108     2.917515785    -8.693706786
 H        1.464811870     4.476563394    -9.385822532
 H        3.910013168     5.753960685    -5.338942168
 H        4.443976543     5.460643252    -3.692355435
 H        2.783702611     5.964568957    -3.985021161
 H        2.699523772     2.256101562    -2.998987773
 H        2.067436056     3.861186203    -2.565118854
 H        3.781421177     3.500700482    -2.390520254
 H      -10.714203372     8.654268902    -2.863748173
 H      -11.583822546     7.130852115    -2.752506747
 H       -9.837263999     7.116408666    -2.953169294
 H      -10.504901619     6.047892290     0.657671272
 H       -9.742832763     5.548474296    -0.865174944
 H      -11.491951281     5.671569113    -0.748092197
 H      -11.300640691    10.440330375    -1.327875647
 H      -10.624004819    12.012264075    -0.935061872
 H      -11.024651726    10.898130933     0.362995994
 H       -7.214515481    10.963638680     0.186392660
 H       -8.611232420    11.337102294     1.198182644
 H       -8.260054959    12.326480827    -0.213176887
 H       -3.289382984    15.480568011    -1.267860698
 H       -1.843861447    15.857503184    -0.342995322
 H       -3.331833703    15.463229271     0.506055643
 H       -1.004341733    12.449816090     0.924308554
 H       -1.957819683    13.645494194     1.821415817
 H       -0.551664405    14.148946214     0.891136391
 H       -2.948869133    13.750089578    -3.248059004
 H       -4.255743079    13.154493679    -4.255970863
 H       -3.138561395    12.007718309    -3.529784974
 H       -6.490097614    11.713671343    -1.680657346
 H       -5.290639511    10.785573869    -2.604704919
 H       -6.235802257    12.049417678    -3.387956287
 H       -2.596276573    -1.540596317    -0.767328292
 H       -2.473651746    -1.541474290    -2.518361938
 H       -2.660975195    -0.012989496    -1.668637573
 H        0.956564719    -0.180079258    -2.935711043
 H       -0.535286375     0.786777459    -3.000634701
 H       -0.478217070    -0.812418600    -3.730568019
 H       -0.489348046    -2.984410117     0.714131392
 H       -0.660122087    -2.892228583     2.460393359
 H        0.886538005    -2.500498914     1.723210661
 H       -0.632701500     0.817002796     2.893039853
 H        0.787070143    -0.231530145     3.049031087
 H       -0.767977800    -0.744234690     3.691246355

