187   

Si        0.000000000     0.000000000     0.000000000
 C        1.864968530     0.000000000     0.000000000
 C       -0.675348321     1.711821981     0.000000000
 C        0.159588227     2.823126552     0.149602407
 C       -0.370179238     4.113623430     0.147177458
 C       -1.743750052     4.321145444    -0.000718382
 C       -2.579422776     3.205411589    -0.145780788
 C       -2.054485364     1.916802791    -0.142893077
 C       -2.342336040     5.651112169    -0.009241426
 C       -1.652457918     6.796929758     0.121442149
 C       -2.245788256     8.129444762     0.113635801
 C       -3.619388110     8.342739319    -0.034002905
 C       -4.141777919     9.635055348    -0.035501109
 C       -3.298532627    10.744108670     0.097199777
 C       -1.921972461    10.532728643     0.242693611
 C       -1.404132327     9.240182907     0.254748533
Si       -3.992703255    12.449265154     0.094714702
 C       -2.631644572    13.661000015     0.270392298
 C       -2.637690483    14.656436185     1.166903001
 C       -1.571682250    15.641926865     1.337163991
 C       -1.727631934    16.624689154     2.322615469
 C       -0.754812721    17.588434945     2.535735577
 C        0.359174711    17.680881278     1.679358977
 C        0.496914368    16.712189241     0.659937243
 C       -0.442378980    15.702558329     0.513633169
 N        1.365688567    18.638988016     1.857396369
 C        1.263006715    19.648526950     2.920861233
 C        2.029517031    19.119438810     0.633661618
 C        0.548976756    20.963511265     2.551294848
 C       -0.957733487    20.970315263     2.882846286
 N       -1.832806575    21.491469892     1.810126114
 C       -1.754915919    20.690223738     0.623183172
 C       -2.502866537    19.501795157     0.609451313
 C       -2.475018681    18.677232905    -0.506212417
 C       -1.694920321    19.009450242    -1.623144259
 C       -0.960546633    20.198242169    -1.601252433
 C       -0.995627841    21.042939833    -0.497773386
 C       -1.647714111    22.936745510     1.581955568
 C       -1.686643072    18.116874964    -2.787544701
 C       -0.963559157    18.377326919    -3.883918461
Si       -0.834387369    17.390194554    -5.409250415
 C       -1.037178846    15.573432430    -5.253584189
 C       -0.866458658    14.872106579    -4.057147128
 C       -1.038500162    13.485897977    -4.017365044
 C       -1.372997121    12.777945257    -5.173554710
 C       -1.536165495    13.484586744    -6.374278739
 C       -1.369014288    14.862745989    -6.416550632
 C       -1.571498580    11.336069473    -5.225439180
 C       -1.468191586    10.466466936    -4.206776747
 C       -1.689494200     9.031004091    -4.369930151
 C       -2.025117007     8.468581430    -5.605698267
 C       -2.231450316     7.096814588    -5.737369620
 C       -2.100627884     6.250720885    -4.631849417
 C       -1.761299417     6.810000373    -3.393118969
 C       -1.558237666     8.182080469    -3.265399360
Si       -2.371961259     4.438321862    -4.799942318
 C       -3.165324083     4.005298836    -6.432438938
 C       -0.711011505     3.519781927    -4.659868908
 C       -3.478431662     3.882145126    -3.358076221
 C       -2.147882173    18.057796922    -6.618477292
 C        0.897932094    17.726373952    -6.128971076
 C       -4.889839613    12.754314669    -1.558219536
 C       -5.244204524    12.661143920     1.512331973
 C       -0.663861171    -0.859293487    -1.564468777
 C       -0.609536081    -0.947885384     1.532044036
 H        1.241619232     2.722771072     0.270389834
 H        0.302165087     4.961962066     0.263521944
 H       -3.654182950     3.344726927    -0.256085414
 H       -2.755272299     1.085594510    -0.261699273
 H       -3.429141983     5.665318407    -0.134729189
 H       -0.565701860     6.781070879     0.248933067
 H       -4.294404251     7.497030561    -0.151554901
 H       -5.223369084     9.740822556    -0.159195059
 H       -1.216168105    11.361046368     0.359471073
 H       -0.332358498     9.095212456     0.376647989
 H       -1.798299343    13.527516988    -0.435231336
 H       -3.467677264    14.811529507     1.871397110
 H       -2.612102162    16.616368901     2.960944894
 H       -0.882521791    18.289149125     3.356209022
 H        1.348327236    16.745063898    -0.013126294
 H       -0.300674830    14.955104407    -0.268284366
 H        2.686314655    19.975429134     0.853998925
 H        1.309641912    19.423204320    -0.148440389
 H        2.670640264    18.314288106     0.229889258
 H       -1.977249537    23.473158136     2.489058339
 H       -2.301838190    23.262504825     0.754627739
 H       -0.615476663    23.240327962     1.355209199
 H       -3.102288489    19.236571403     1.479371269
 H       -3.056866709    17.753792242    -0.505038546
 H       -0.353348182    20.483370379    -2.461076842
 H       -0.427725437    21.968204727    -0.512684568
 H       -2.308154711    17.221615573    -2.669576893
 H       -0.361651767    19.302994119    -3.945494977
 H       -0.603767194    15.380936174    -3.124360518
 H       -0.902062719    12.956245633    -3.075556043
 H       -1.796513633    12.950065841    -7.286085281
 H       -1.510092425    15.353600772    -7.384351405
 H       -1.830310669    10.965899386    -6.225696766
 H       -1.215538312    10.795061393    -3.196426888
 H       -2.132704392     9.101512550    -6.484856740
 H       -2.495453986     6.720611518    -6.728995586
 H       -1.647005018     6.197760868    -2.491510826
 H       -1.303012150     8.597162043    -2.289711329
 H        0.801397984    19.188127590     3.822234923
 H        2.315443932    19.882534838     3.221993796
 H        1.043675131    21.802366260     3.074258128
 H        0.696495992    21.170232219     1.473137321
 H       -1.317849722    19.941266041     3.116725262
 H       -1.148359279    21.574705547     3.796392073
 H        2.262947736    -1.030000552    -0.033493607
 H        2.273095142     0.483984447     0.904696992
 H        2.263448280     0.536909869    -0.879919575
 H       -3.360866591     2.920738732    -6.503777107
 H       -2.524135243     4.284497817    -7.286387012
 H       -4.132557873     4.525342122    -6.552866433
 H       -0.961101104     2.424331310    -4.763599634
 C        0.271745319     3.893864938    -5.784693980
 C       -0.009521726     3.724192841    -3.307172505
 H       -2.894197597     4.141389700    -2.424635503
 C       -4.814446027     4.643586263    -3.301470708
 C       -3.755386368     2.369160274    -3.337120406
 H       -1.943267969    17.564274143    -7.611539436
 C       -3.575799949    17.684320651    -6.182638500
 C       -2.066939829    19.580896939    -6.821699221
 H        0.968343673    18.843802653    -6.264037887
 C        2.014884399    17.288537870    -5.164114485
 C        1.132133472    17.066351006    -7.498093339
 H       -5.887704182    12.236612788    -1.461747574
 C       -5.144563361    14.247916600    -1.829320461
 C       -4.165495512    12.146394934    -2.769625605
 H       -5.494525450    13.761950721     1.534652751
 C       -6.562285865    11.889632590     1.323611922
 C       -4.644565094    12.275674356     2.877739662
 H       -1.788835427    -0.839860757    -1.470905923
 C       -0.285936980    -0.110419005    -2.855230293
 C       -0.226273267    -2.328947414    -1.690660033
 H       -0.088737612    -1.948634740     1.494178398
 C       -0.213884980    -0.253889152     2.848465929
 C       -2.126936152    -1.204866971     1.548235964
 H       -0.120915750     3.699166966    -6.790425200
 H        1.191887049     3.299408423    -5.692674984
 H        0.581613917     4.947964532    -5.746292485
 H       -0.621654025     3.421783602    -2.444148012
 H        0.305067266     4.763994373    -3.141216540
 H        0.903763672     3.114420621    -3.258214667
 H       -4.687140234     5.734912942    -3.249933764
 H       -5.376439349     4.354861870    -2.402553772
 H       -5.467155496     4.427843678    -4.157013048
 H       -2.840554651     1.764400413    -3.266772221
 H       -4.320657687     2.023282927    -4.211487365
 H       -4.359630380     2.109984562    -2.455873917
 H       -3.729509698    16.600917095    -6.076988246
 H       -4.301621499    18.025860935    -6.933805235
 H       -3.870124647    18.154768060    -5.233174600
 H       -1.093032040    19.920438672    -7.195881967
 H       -2.291121064    20.146099618    -5.905861871
 H       -2.809797424    19.899527537    -7.567262988
 H        1.948618517    17.761814343    -4.174701166
 H        2.996618579    17.563979589    -5.574160379
 H        2.041912850    16.200018567    -5.009815784
 H        0.420581161    17.392498757    -8.267135775
 H        1.099629244    15.967986544    -7.454475967
 H        2.131727147    17.326854493    -7.875328548
 H       -5.730945461    14.741620824    -1.044609971
 H       -5.714687134    14.367194457    -2.761898727
 H       -4.214901695    14.820749247    -1.963686521
 H       -3.948076066    11.074123546    -2.663799837
 H       -3.219488156    12.654934323    -3.003922922
 H       -4.789190518    12.240514982    -3.670249258
 H       -7.094565307    12.150969215     0.400308456
 H       -7.252274960    12.121717410     2.148291797
 H       -6.427174609    10.799789133     1.339564884
 H       -3.717216614    12.812624046     3.120624011
 H       -4.428075685    11.200653950     2.958232827
 H       -5.355876710    12.507833542     3.682583410
 H       -0.598227472     0.945197191    -2.854390676
 H       -0.778919298    -0.576595106    -3.720009747
 H        0.791610212    -0.133838885    -3.064516622
 H       -0.528172459    -2.948181301    -0.836228333
 H        0.858134732    -2.443992755    -1.819248295
 H       -0.690000961    -2.783909307    -2.578063799
 H        0.868427585    -0.106200645     2.956706268
 H       -0.527250589    -0.866282075     3.706224988
 H       -0.697071169     0.725338305     2.977058887
 H       -2.487184071    -1.750897148     0.667264017
 H       -2.714851774    -0.280931482     1.638715502
 H       -2.392844997    -1.821346515     2.419556065

