187   

Si        0.000000000     0.000000000     0.000000000
 C        1.865249784     0.000000000     0.000000000
 C       -0.676708284     1.710914934     0.000000000
 C        0.136947211     2.811022462     0.288317767
 C       -0.389272616     4.102675023     0.284776068
 C       -1.739422988     4.322618278     0.000037427
 C       -2.553297717     3.218771211    -0.286486960
 C       -2.030620330     1.928979890    -0.288187300
 C       -2.333204064     5.654388006    -0.015159047
 C       -1.663867349     6.791959142     0.237058942
 C       -2.263635573     8.121314118     0.220297797
 C       -1.455561777     9.230741416     0.501280771
 C       -1.987143151    10.517931523     0.496132988
 C       -3.347095288    10.718694420     0.232597327
 C       -4.157174774     9.612495075    -0.045967070
 C       -3.616817635     8.327919310    -0.060758591
Si       -4.073676235    12.407790082     0.219871502
 C       -5.884915369    12.239896118     0.374034058
 C       -6.810328673    12.817958276    -0.401017305
 C       -8.250482805    12.634901506    -0.214695770
 C       -9.132586843    13.288265725    -1.085121326
 C      -10.504212220    13.148022598    -0.951528107
 C      -11.042926003    12.279533922     0.022390495
 C      -10.156253978    11.606706985     0.883943840
 C       -8.785974471    11.799470016     0.770453027
 N      -12.438873999    12.149882013     0.143537462
 C      -13.228909349    12.296590632    -1.093230736
 C      -12.930730653    11.092848477     1.040862261
 C      -12.782434982    11.386607742    -2.251922099
 C      -13.509337906    10.028913772    -2.247474739
 N      -12.665330892     8.899717625    -2.677633609
 C      -11.828702090     8.322357140    -1.696036167
 C      -12.406193680     7.946925113    -0.465467230
 C      -11.627364705     7.377090133     0.528101290
 C      -10.269842631     7.096714367     0.312416681
 C       -9.707164190     7.443073809    -0.918537571
 C      -10.467412048     8.051378199    -1.911452799
 C      -12.078567071     9.097005284    -4.012391658
 C       -9.498621748     6.493853980     1.401710388
 C       -8.199344530     6.176222234     1.329925283
Si       -7.231827534     5.422976696     2.688116677
 C       -5.662476838     6.323785146     2.999575399
 C       -5.601184395     7.715960114     2.885136290
 C       -4.403121283     8.388153011     3.124353755
 C       -3.254196195     7.690061655     3.507440745
 C       -3.322770637     6.296893443     3.632102525
 C       -4.512282039     5.620074340     3.379383705
 C       -1.979065587     8.349549159     3.768449539
 C       -1.782510534     9.675516579     3.683611168
 C       -0.518070811    10.353882399     3.939938230
 C        0.644026610     9.672254010     4.308842005
 C        1.831338226    10.365988022     4.543736573
 C        1.880928205    11.756727795     4.408800199
 C        0.716886272    12.442110094     4.034941815
 C       -0.465743243    11.747442899     3.802901694
Si        3.435148092    12.692438209     4.713349675
 C        4.726431232    11.633865196     5.544559793
 C        4.123847456    13.310549003     3.049050778
 C        3.020707028    14.201753907     5.796571792
 C       -8.227221319     5.416581696     4.310390593
 C       -6.862368160     3.620941120     2.195626546
 C       -3.441387183    13.404801103     1.714036621
 C       -3.561227051    13.286888777    -1.383424900
 C       -0.659001816    -0.905015092    -1.539549538
 C       -0.620191774    -0.914502291     1.550472476
 H        1.199965480     2.700826950     0.518509781
 H        0.265503791     4.942798534     0.509200601
 H       -3.605925671     3.369299854    -0.520825742
 H       -2.712697192     1.107383930    -0.523441181
 H       -3.402412143     5.677914773    -0.247202078
 H       -0.597249323     6.772641064     0.477986766
 H       -0.400604154     9.089174941     0.730158207
 H       -1.307069382    11.345066500     0.717894556
 H       -5.226324275     9.711371562    -0.262786166
 H       -4.266153286     7.481061565    -0.277752528
 H       -6.183029428    11.591617787     1.217420654
 H       -6.558670228    13.475507116    -1.241947325
 H       -8.738567252    13.936487192    -1.868198064
 H      -11.160639617    13.708813568    -1.609748648
 H      -10.527374792    10.921534651     1.640133782
 H       -8.121707738    11.268720635     1.455797272
 H      -14.032245957    11.078536279     1.044261511
 H      -12.610816377    11.322542046     2.074393458
 H      -12.565236023    10.085425908     0.774080874
 H      -12.865393261     9.434268082    -4.708552823
 H      -11.705429023     8.127525454    -4.389956281
 H      -11.255150104     9.829100571    -4.038394735
 H      -13.470956704     8.092493331    -0.301523552
 H      -12.086939467     7.118381257     1.482224155
 H       -8.649884317     7.247832340    -1.107473457
 H       -9.987309666     8.330459849    -2.844538119
 H      -10.100309625     6.325575065     2.305142028
 H       -7.618972247     6.350307647     0.409095883
 H       -6.470186455     8.313330206     2.592282086
 H       -4.369053795     9.470159359     3.003255916
 H       -2.436787419     5.733341768     3.918809781
 H       -4.500544760     4.531489332     3.484051193
 H       -1.162424907     7.678130242     4.046950193
 H       -2.605638368    10.338404154     3.393690865
 H        0.630408159     8.589621167     4.419009242
 H        2.707435200     9.780852733     4.835028337
 H        0.696254318    13.529006926     3.916410722
 H       -1.362045414    12.296190286     3.515104123
 H      -14.302761031    12.133848012    -0.855354121
 H      -13.158149509    13.366731212    -1.404341839
 H      -12.946683699    11.900125345    -3.215805655
 H      -11.684844340    11.224985076    -2.196293813
 H      -13.921789576     9.811524342    -1.237888004
 H      -14.387940983    10.061131741    -2.932491781
 H        2.263729892    -1.029177729    -0.047138707
 H        2.274492728     0.473858273     0.909326774
 H        2.260378706     0.549204642    -0.873970332
 H        5.641487869    12.215038249     5.757238936
 H        5.016944290    10.774124285     4.915834737
 H        4.353846335    11.237691474     6.506685918
 H        5.094261434    13.831076078     3.294060279
 C        4.431606803    12.157989566     2.075306520
 C        3.206416223    14.321659085     2.338090991
 H        2.288096052    14.818780631     5.199165534
 C        2.336365608    13.808469900     7.118190759
 C        4.240029419    15.088153710     6.106878028
 H       -9.208137640     4.912464582     4.074893873
 C       -7.541770329     4.621368788     5.435754550
 C       -8.525615899     6.838636895     4.820161656
 H       -6.308893974     3.166089758     3.067618819
 C       -8.135657954     2.790225007     1.958697141
 C       -5.959650819     3.521777421     0.953229994
 H       -2.320662406    13.273341722     1.722037502
 C       -3.740686237    14.911148986     1.610168884
 C       -4.001345430    12.885940713     3.051129406
 H       -4.099037590    14.278537632    -1.382055756
 C       -2.048720197    13.562509608    -1.465299328
 C       -3.989790279    12.511542699    -2.642897338
 H       -1.783329381    -0.908437697    -1.438276182
 C       -0.306872574    -0.174660459    -2.848152676
 C       -0.191031739    -2.367768002    -1.639675281
 H       -0.138874306    -1.934206100     1.517514245
 C       -0.185705458    -0.222899772     2.856023785
 C       -2.147019056    -1.108005264     1.581354387
 H        5.146293682    11.427473936     2.475579226
 H        4.881330060    12.553605318     1.153356215
 H        3.530591068    11.608036635     1.767174774
 H        3.001496963    15.218933563     2.935538202
 H        2.242525425    13.885781365     2.038908945
 H        3.683664590    14.673686767     1.411850215
 H        1.420258149    13.217993163     6.973001320
 H        2.035924675    14.710247042     7.670505770
 H        2.993305216    13.239313666     7.789223889
 H        4.743714734    15.465186277     5.207470479
 H        4.992787616    14.579607046     6.723782407
 H        3.924091888    15.974356224     6.676412733
 H       -7.387418089     3.563076942     5.189768057
 H       -8.165047121     4.637641036     6.341411844
 H       -6.568855789     5.043282375     5.726750627
 H       -9.046847130     7.469384847     4.087163700
 H       -7.617622511     7.376298207     5.131008215
 H       -9.173799960     6.793078688     5.706303401
 H       -8.794002528     2.741388681     2.835418640
 H       -7.868297622     1.751434427     1.718039224
 H       -8.735891856     3.156995649     1.113866826
 H       -5.011951999     4.070526714     1.063685207
 H       -6.451152700     3.880436361     0.038793063
 H       -5.689622101     2.471943915     0.769221588
 H       -3.300621407    15.384431077     0.723406788
 H       -3.322064692    15.439170736     2.478935151
 H       -4.816632488    15.134825097     1.605193236
 H       -3.828725291    11.813449083     3.216125402
 H       -5.081071505    13.064858940     3.155997493
 H       -3.523210392    13.410736252     3.890809037
 H       -1.669104177    14.174338669    -0.636985170
 H       -1.817195143    14.115300712    -2.386964083
 H       -1.449596045    12.640978463    -1.504074615
 H       -5.068877645    12.311365405    -2.689399101
 H       -3.473187130    11.545832891    -2.744115792
 H       -3.742671206    13.088833563    -3.544570887
 H       -0.659585539     0.866516867    -2.872037374
 H       -0.781938617    -0.679244415    -3.701429011
 H        0.771129373    -0.163182980    -3.056675046
 H       -0.471180143    -2.974529119    -0.768990086
 H        0.894249867    -2.461661757    -1.777802537
 H       -0.654254044    -2.850699785    -2.512406727
 H        0.902402250    -0.116320614     2.952268906
 H       -0.514109011    -0.814202407     3.722714732
 H       -0.630198601     0.775434055     2.978012973
 H       -2.532825215    -1.667769728     0.720043531
 H       -2.695891985    -0.157364184     1.640716978
 H       -2.434119850    -1.683438435     2.473481442

