187   

Si        0.000000000     0.000000000     0.000000000
 C        1.864923415     0.000000000     0.000000000
 C       -0.677098651     1.711887086     0.000000000
 C        0.021766732     2.749131278    -0.627422474
 C       -0.486807632     4.047667645    -0.630269405
 C       -1.706258307     4.338493762    -0.012615947
 C       -2.408506884     3.297159428     0.608346202
 C       -1.904120001     1.999424118     0.611261971
 C       -2.279046825     5.680108743     0.010919442
 C       -1.715224117     6.766093997    -0.544656110
 C       -2.294363329     8.105391215    -0.517056262
 C       -3.515643369     8.383231487     0.104493129
 C       -4.034603448     9.676677591     0.108580645
 C       -3.341217780    10.722428248    -0.511487901
 C       -2.119742818    10.447509405    -1.137487056
 C       -1.605372268     9.152870638    -1.141440341
Si       -4.032929911    12.427061306    -0.501746471
 C       -2.760514411    13.629263154    -1.027724198
 C       -2.919548869    14.570291934    -1.967545995
 C       -1.879439910    15.519680560    -2.366787498
 C       -2.170543346    16.459959291    -3.366303964
 C       -1.223824414    17.380772650    -3.781915572
 C        0.048520092    17.423487942    -3.170436203
 C        0.341439917    16.480742695    -2.167490921
 C       -0.605066516    15.534402426    -1.794611871
 N        0.993351345    18.367664140    -3.609895531
 C        0.479236653    19.698365628    -3.978330636
 C        2.273564714    18.426464010    -2.886486964
 C       -0.275175081    20.408897831    -2.835491776
 C       -0.259958357    21.939379233    -3.004153575
 N        0.783182167    22.635707828    -2.214689722
 C        2.099802117    22.167404043    -2.478889520
 C        2.599402928    22.344452329    -3.784882278
 C        3.874348338    21.910198983    -4.106070400
 C        4.704403278    21.327895201    -3.134903108
 C        4.213801613    21.179240261    -1.836460089
 C        2.929092128    21.597181012    -1.503257471
 C        0.422429343    22.752223829    -0.790546006
 C        6.043170410    20.886706750    -3.530489049
 C        6.925523982    20.318426460    -2.697925260
Si        8.594981180    19.773434320    -3.211612064
 C        8.603251108    19.266527396    -4.979573628
 C        7.492035055    18.588335265    -5.499554151
 C        7.468806324    18.191876736    -6.833469247
 C        8.556638228    18.451721660    -7.677891333
 C        9.665684881    19.121561352    -7.154322309
 C        9.690930607    19.523886998    -5.818973233
 C        8.483642041    18.015855057    -9.068352862
 C        9.450412877    18.203753862    -9.982595344
 C        9.374381141    17.766568796   -11.372707642
 C        8.263540347    17.097065948   -11.892207228
 C        8.232388840    16.696588404   -13.227902133
 C        9.316345982    16.953475109   -14.073136965
 C       10.431753429    17.625267522   -13.554470045
 C       10.457749351    18.028316789   -12.222312144
Si        9.290298131    16.431269911   -15.838135767
 C        7.907433257    15.225865162   -16.176309116
 C        9.056556103    17.959408022   -16.948425682
 C       10.970027344    15.636149837   -16.250672412
 C        9.828709289    21.188640772    -2.912482268
 C        9.097178225    18.283350496    -2.141685127
 C       -5.547582285    12.498726732    -1.650552358
 C       -4.583568002    12.857921397     1.268328973
 C       -0.628474498    -0.900397181    -1.555166634
 C       -0.643487091    -0.935523909     1.528625032
 H        0.980988988     2.583155129    -1.125818354
 H        0.077984666     4.837551121    -1.122145880
 H       -3.361213264     3.501251656     1.093433874
 H       -2.499569884     1.228707980     1.108314673
 H       -3.239027516     5.756857557     0.530288183
 H       -0.755908845     6.691883894    -1.064834506
 H       -4.072938491     7.586595424     0.593556590
 H       -4.992249485     9.833118733     0.612959861
 H       -1.538847309    11.226322369    -1.642298152
 H       -0.655636123     8.956770378    -1.635539152
 H       -1.809265599    13.528550208    -0.479724161
 H       -3.857077225    14.701304503    -2.524157654
 H       -3.154748830    16.460397699    -3.835502992
 H       -1.466246989    18.072089532    -4.583828645
 H        1.308623491    16.476933709    -1.675126319
 H       -0.346500207    14.803867923    -1.026311316
 H        2.941296910    19.166586993    -3.367671424
 H        2.779137739    17.446947062    -2.956881475
 H        2.170945249    18.708147521    -1.826503087
 H       -0.527979712    23.309280542    -0.712654241
 H        1.188063682    23.350839809    -0.266240092
 H        0.303828886    21.789477419    -0.269673394
 H        1.980232981    22.832571138    -4.534788758
 H        4.243389738    22.038343362    -5.124752321
 H        4.841579620    20.733347890    -1.063921984
 H        2.576052660    21.460908474    -0.485450627
 H        6.257294403    21.058740423    -4.595515874
 H        6.694696964    20.164702444    -1.633313872
 H        6.614312823    18.355515044    -4.886496659
 H        6.594853107    17.671620055    -7.221764501
 H       10.523904613    19.335395961    -7.788568465
 H       10.586291088    20.043178948    -5.466761122
 H        7.555405107    17.503150057    -9.338109796
 H       10.378988896    18.715817759    -9.713952687
 H        7.408041448    16.881302312   -11.254645274
 H        7.335740804    16.176587830   -13.576396984
 H       11.307992760    17.853025511   -14.168067521
 H       11.332145089    18.550340022   -11.838269078
 H        1.341301440    20.315683678    -4.323322044
 H       -0.181187389    19.586877374    -4.867525809
 H       -1.315412793    20.036635891    -2.789402103
 H        0.169648585    20.128279372    -1.861438866
 H       -0.116579927    22.217263682    -4.072390784
 H       -1.246386374    22.365857046    -2.714616031
 H        2.262622885    -1.028858629     0.057872755
 H        2.258518029     0.558777892     0.868946585
 H        2.277275253     0.465938458    -0.911789440
 H        7.923404574    14.886933085   -17.227589406
 H        6.916621410    15.674615475   -15.987055725
 H        7.999171678    14.328598951   -15.537478074
 H        8.998391081    17.563229658   -18.003432489
 C        7.747343814    18.712230813   -16.648486834
 C       10.226301323    18.957449267   -16.878821900
 H       11.744257756    16.437703563   -16.070501977
 C       11.300854392    14.446945588   -15.330827452
 C       11.091952570    15.185004624   -17.717054200
 H       10.837904842    20.794553798    -3.227984265
 C        9.510049964    22.431164532    -3.763291922
 C        9.924627182    21.608470390    -1.434728862
 H        9.098776851    18.650876218    -1.075077603
 C        8.091015471    17.123123853    -2.245824240
 C       10.505050539    17.755790157    -2.467855550
 H       -5.853320738    13.584517142    -1.688875639
 C       -5.216668519    12.041093712    -3.083025877
 C       -6.750936560    11.686503850    -1.139715627
 H       -5.374916405    12.100934471     1.540008536
 C       -3.437735275    12.732351121     2.288336305
 C       -5.206092886    14.260491973     1.381462748
 H       -0.162317457    -1.927227652    -1.526682998
 C       -2.158206121    -1.069775077    -1.580448099
 C       -0.185787745    -0.211177638    -2.858788086
 H       -1.769412392    -0.926039565     1.447555460
 C       -0.190795221    -2.405814703     1.583361248
 C       -0.258183843    -0.245485936     2.849867414
 H        6.850595736    18.088298530   -16.754602509
 H        7.624102573    19.548478953   -17.351624705
 H        7.729274327    19.152361714   -15.641012881
 H       11.191139488    18.519020410   -17.163321548
 H       10.341192221    19.411520282   -15.884467769
 H       10.050960091    19.789733019   -17.576114866
 H       11.286807706    14.707420949   -14.262738942
 H       12.313894886    14.076424293   -15.542945450
 H       10.624152740    13.593747724   -15.471750184
 H       10.938580166    15.999187478   -18.437055147
 H       10.397115247    14.374848333   -17.975091817
 H       12.102397882    14.794192656   -17.906371549
 H        9.472629386    22.226509444    -4.842217387
 H       10.287445414    23.195315402    -3.621797768
 H        8.557446552    22.905508232    -3.485514251
 H       10.228299106    20.791587220    -0.767746478
 H        8.985620371    22.027667379    -1.047198089
 H       10.682788278    22.396548311    -1.317282113
 H        7.065900476    17.407226612    -1.971951178
 H        8.379609559    16.312150609    -1.561901853
 H        8.056395105    16.677270546    -3.250555015
 H       11.294865525    18.505181110    -2.329123355
 H       10.589979925    17.366693371    -3.492811935
 H       10.756921234    16.917883819    -1.801558436
 H       -4.391410928    12.600813761    -3.544550450
 H       -6.089190288    12.182009993    -3.736011297
 H       -4.958729838    10.973586761    -3.139698446
 H       -7.107153715    12.007582565    -0.152789374
 H       -6.549065456    10.607285937    -1.091626636
 H       -7.602102036    11.806023048    -1.825868445
 H       -2.970323677    11.737491208     2.297219892
 H       -3.818967840    12.900376761     3.305552751
 H       -2.641556057    13.472788712     2.131168664
 H       -6.088169939    14.398189380     0.743088781
 H       -4.494740600    15.064433088     1.143702741
 H       -5.541289127    14.441548604     2.412651512
 H       -2.546840765    -1.646112969    -0.731339191
 H       -2.461025076    -1.615908842    -2.485633833
 H       -2.694150670    -0.110229628    -1.608405523
 H        0.903750588    -0.125809602    -2.958818236
 H       -0.612623388     0.795457124    -2.975582543
 H       -0.528852170    -0.792301421    -3.726850960
 H       -0.487680930    -2.985965311     0.700141884
 H       -0.649633805    -2.907266686     2.447926114
 H        0.894830725    -2.515428872     1.706055481
 H       -0.585419257     0.802430297     2.906126404
 H        0.822846609    -0.263493047     3.042784107
 H       -0.731803332    -0.761704330     3.696994640

