187   

Si        0.000000000     0.000000000     0.000000000
 C        1.865151663     0.000000000     0.000000000
 C       -0.686273099     1.707891561     0.000000000
 C        0.119940644     2.814055065    -0.285823653
 C       -0.415386554     4.102224515    -0.281776630
 C       -1.766993730     4.313281946     0.002336829
 C       -2.574460470     3.203243543     0.285127693
 C       -2.042999267     1.916861833     0.283476405
 C       -2.372113734     5.640691182     0.018502236
 C       -1.716545796     6.786647430    -0.231721739
 C       -2.328765147     8.111201377    -0.213707044
 C       -1.531078439     9.228234934    -0.493198852
 C       -2.073448819    10.511408788    -0.487122386
 C       -3.426131796    10.708623219    -0.186506755
 C       -4.224780777     9.593576593     0.094836076
 C       -3.681931656     8.310166643     0.075753410
Si       -4.179428426    12.387203438    -0.168217723
 C       -5.478880822    12.530488960     1.109430280
 C       -5.480452860    11.842159424     2.259407000
 C       -6.518148147    11.953622070     3.284627317
 C       -6.406702242    11.178111264     4.448115060
 C       -7.360756965    11.245420385     5.449363285
 C       -8.502792948    12.063809276     5.295007537
 C       -8.617156833    12.839998859     4.124378112
 C       -7.626462527    12.794521240     3.152653594
 N       -9.458448900    12.121856795     6.315125682
 C       -9.700151301    10.910139725     7.113199477
 C      -10.641685413    12.963104183     6.099588264
 C       -9.997006689     9.629985912     6.309620737
 C      -11.422692214     9.544678063     5.736575123
 N      -12.523463737     9.447636321     6.717284467
 C      -13.004860048    10.692957885     7.196331318
 C      -13.580474774    11.565277306     6.249892251
 C      -14.070911650    12.797393877     6.647796109
 C      -14.040059031    13.184502674     7.996987986
 C      -13.497785397    12.303226660     8.934588329
 C      -12.995800166    11.064343775     8.548669086
 C      -12.321606286     8.399923110     7.729357699
 C      -14.572834847    14.499237959     8.358999968
 C      -14.601564186    14.985483023     9.607016890
Si      -15.273303269    16.633256841    10.034222819
 C      -15.062293680    17.813786594     8.639412418
 C      -13.925500960    17.721312399     7.827067495
 C      -13.741070180    18.603040318     6.763856057
 C      -14.679945116    19.603297875     6.494738851
 C      -15.812268549    19.699030657     7.313882918
 C      -16.001494502    18.817043580     8.375512698
 C      -14.527300926    20.547534660     5.392766278
 C      -13.491114633    20.562249825     4.537171714
 C      -13.336228456    21.505309953     3.434599835
 C      -14.273320476    22.504424962     3.159556040
 C      -14.084973735    23.385186916     2.094385034
 C      -12.956458369    23.280255576     1.275459906
 C      -12.015717764    22.277728001     1.548416422
 C      -12.203485740    21.403863044     2.615509208
Si      -12.692483433    24.434378684    -0.134417986
 C      -14.229311716    25.423000776    -0.508891454
 C      -11.279177733    25.638245519     0.286261238
 C      -12.182698332    23.408577615    -1.654737565
 C      -17.112343820    16.453202625    10.482908479
 C      -14.332654270    17.294534403    11.548820706
 C       -2.847506170    13.706439293     0.156558966
 C       -4.967491211    12.721624693    -1.867148405
 C       -0.609591797    -0.924436902    -1.548516676
 C       -0.654621536    -0.906077741     1.541233251
 H        1.184213906     2.711562871    -0.514894368
 H        0.233847747     4.946844286    -0.505155714
 H       -3.630050707     3.345594025     0.508679852
 H       -2.721707482     1.090282114     0.512167572
 H       -3.440110865     5.652270537     0.256297962
 H       -0.649233965     6.777720413    -0.470082316
 H       -0.475338261     9.095342140    -0.720948388
 H       -1.403739799    11.343686176    -0.719628371
 H       -5.289311647     9.688377393     0.335854578
 H       -4.324802640     7.459361515     0.293648171
 H       -6.275090099    13.252357580     0.874620152
 H       -4.691739026    11.121529112     2.520130352
 H       -5.545802128    10.520189070     4.576062292
 H       -7.224304042    10.665757029     6.357132007
 H       -9.476960834    13.482473975     3.967115910
 H       -7.731486618    13.416853505     2.262749098
 H      -11.274279842    12.970034047     7.007169387
 H      -11.268015412    12.635765535     5.253596795
 H      -10.321662041    14.007529624     5.928592916
 H      -12.093585920     7.448582587     7.217446767
 H      -13.264821786     8.251339565     8.285542857
 H      -11.516750342     8.609253515     8.450976847
 H      -13.645933145    11.257808034     5.207856114
 H      -14.503741879    13.467823764     5.903699688
 H      -13.467283908    12.580619563     9.988986153
 H      -12.585833357    10.399550289     9.302849908
 H      -14.948578667    15.064420933     7.493290792
 H      -14.230327422    14.399358113    10.460663509
 H      -13.153696856    16.961417290     7.992724141
 H      -12.852037254    18.506919585     6.143075722
 H      -16.554762011    20.471236040     7.121922007
 H      -16.903579424    18.941469852     8.980556702
 H      -15.338611535    21.274933121     5.297159292
 H      -12.679479788    19.834866185     4.633591598
 H      -15.162569683    22.604937232     3.779169821
 H      -14.852187805    24.146791520     1.929576234
 H      -11.115168321    22.147259228     0.941538208
 H      -11.461106640    20.632703815     2.812595573
 H       -8.794211536    10.744897411     7.745879276
 H      -10.529348679    11.112813019     7.829112307
 H       -9.278852510     9.545855069     5.466123516
 H       -9.794167143     8.750307515     6.948907023
 H      -11.605388882    10.415385335     5.067702562
 H      -11.499801385     8.637846947     5.089100347
 H        2.262965051    -1.029730206     0.041414328
 H        2.261533163     0.544276706     0.876462689
 H        2.274445220     0.478288871    -0.907106607
 H      -14.076980061    26.079465084    -1.384260074
 H      -14.520040273    26.064811907     0.341206269
 H      -15.082199256    24.758513368    -0.737652981
 H      -11.218377643    26.351908482    -0.585693282
 C      -11.563673281    26.460049384     1.556909559
 C       -9.908825412    24.954346910     0.438341609
 H      -11.226084680    22.883123307    -1.366187758
 C      -13.221594491    22.330717771    -2.013346296
 C      -11.893814114    24.261737856    -2.902595624
 H      -17.465114520    17.484697744    10.774332282
 C      -17.960686815    15.974686036     9.291211395
 C      -17.356017553    15.513881103    11.677589529
 H      -14.498753385    16.542187711    12.372921779
 C      -12.818095240    17.398047941    11.294171224
 C      -14.853196760    18.658703616    12.033507989
 H       -2.093781585    13.602361570    -0.676282384
 C       -3.396691264    15.143950227     0.122032180
 C       -2.119447943    13.482960191     1.494256501
 H       -5.402031946    13.761089830    -1.809845582
 C       -3.951051109    12.690690099    -3.021802444
 C       -6.112370093    11.742099774    -2.182184860
 H       -0.106630103    -1.934011672    -1.517892418
 C       -2.131696256    -1.151258354    -1.573277855
 C       -0.194421606    -0.223318994    -2.854997998
 H       -1.779157138    -0.910523410     1.442887190
 C       -0.184940550    -2.368439395     1.639388674
 C       -0.299496878    -0.175991016     2.849161935
 H      -12.490066395    27.045912548     1.500056356
 H      -10.753149878    27.183224019     1.727278738
 H      -11.617629382    25.839661031     2.463173845
 H       -9.590084200    24.411758713    -0.460607721
 H       -9.872238250    24.255690909     1.286047459
 H       -9.132318619    25.709051782     0.631538605
 H      -13.437370094    21.642906981    -1.183217506
 H      -12.849059913    21.707626741    -2.838897183
 H      -14.177974423    22.751361113    -2.351192065
 H      -11.107959011    25.011671866    -2.744367200
 H      -12.783277360    24.783591306    -3.279824504
 H      -11.544072875    23.619151890    -3.723733874
 H      -17.883693109    16.625267393     8.409025223
 H      -19.024308761    15.956050052     9.567878032
 H      -17.707988937    14.953608784     8.970097775
 H      -16.844932331    15.832858185    12.594909342
 H      -17.061066063    14.475335721    11.472169583
 H      -18.428493247    15.485010013    11.919372335
 H      -12.358375609    16.445225468    10.998458641
 H      -12.302595010    17.717482461    12.211185886
 H      -12.564031274    18.142280289    10.525402769
 H      -15.911128478    18.643494475    12.325083671
 H      -14.722963031    19.456293829    11.287845384
 H      -14.294238241    18.979880066    12.924575308
 H       -3.861892335    15.409997445    -0.835499734
 H       -2.578385154    15.862288072     0.275132937
 H       -4.129247387    15.340289275     0.917633835
 H       -1.648231848    12.493758799     1.576202529
 H       -2.780651445    13.605542422     2.364804184
 H       -1.312768427    14.219635848     1.613598003
 H       -3.148200696    13.431352920    -2.915634771
 H       -4.454356075    12.917993547    -3.972629240
 H       -3.481886273    11.704957990    -3.152545718
 H       -6.911163649    11.747695967    -1.428000738
 H       -5.767487958    10.703905269    -2.292978302
 H       -6.587050787    12.010889206    -3.136380956
 H       -2.501591984    -1.722691536    -0.712657158
 H       -2.410278411    -1.729026725    -2.466705450
 H       -2.702031455    -0.213168531    -1.626745464
 H        0.890793313    -0.093133654    -2.955185763
 H       -0.660689623     0.765221111    -2.975559015
 H       -0.512953538    -0.820960048    -3.721081529
 H       -0.462453586    -2.973924089     0.766926692
 H       -0.649260421    -2.853897523     2.510108310
 H        0.900213378    -2.461121932     1.779411861
 H       -0.655782185     0.863816471     2.875885174
 H        0.779302995    -0.161089612     3.053436679
 H       -0.769160509    -0.683340193     3.703836370

