187   

Si        0.000000000     0.000000000     0.000000000
 C        1.864973627     0.000000000     0.000000000
 C       -0.679059582     1.710550900     0.000000000
 C        0.118028181     2.805050865     0.350029218
 C       -0.408158067     4.096824302     0.346228137
 C       -1.743070825     4.323281617     0.001892615
 C       -2.541410937     3.224063242    -0.341195909
 C       -2.019873833     1.933910128    -0.340164352
 C       -2.339277361     5.655104642    -0.016879281
 C       -1.688161179     6.790593405     0.287765452
 C       -2.288896589     8.120316830     0.267510716
 C       -3.626711711     8.333563328    -0.079076827
 C       -4.161661063     9.619938392    -0.085893661
 C       -3.373382134    10.720415895     0.275023034
 C       -2.036942291    10.509890769     0.630642241
 C       -1.502336427     9.222929763     0.624441749
Si       -4.114593340    12.397211924     0.253214248
 C       -2.891315473    13.753710358     0.313310137
 C       -2.920712617    14.797680131     1.150978573
 C       -1.914307234    15.861264849     1.159560117
 C       -2.046808887    16.908822307     2.084074633
 C       -1.121335142    17.937761712     2.131627116
 C       -0.051877379    17.968832389     1.214164799
 C        0.082273916    16.927466749     0.285251017
 C       -0.833364775    15.880223652     0.276097269
 N        0.864248475    19.047809611     1.311985000
 C        0.243438828    20.385189021     1.186717866
 C        2.115770937    18.908444790     0.549622626
 C       -0.858158796    20.519475953     0.119828610
 C       -0.340060298    20.204962714    -1.294182593
 N       -1.273898105    20.570402841    -2.367406780
 C       -2.443722233    19.815913614    -2.547004499
 C       -2.588753818    18.528823105    -1.988471686
 C       -3.756338440    17.806417468    -2.182635053
 C       -4.799557171    18.305960012    -2.976172235
 C       -4.640824268    19.568357551    -3.554624568
 C       -3.487281077    20.313560303    -3.355030965
 C       -1.381805646    22.024920383    -2.572054969
 C       -6.013841954    17.507913248    -3.152786632
 C       -7.070232821    17.885776050    -3.887034130
Si       -8.583562334    16.876598650    -4.099240742
 C       -8.163058685    15.088134871    -3.995209959
 C       -7.130467501    14.595615814    -4.803937343
 C       -6.777535749    13.248628152    -4.758676045
 C       -7.449177225    12.361056731    -3.911120424
 C       -8.489241354    12.853349212    -3.113200706
 C       -8.848930263    14.198802971    -3.161191519
 C       -7.110670250    10.943977939    -3.833849833
 C       -6.135188010    10.358780140    -4.549119596
 C       -5.784907248     8.944809127    -4.483208973
 C       -6.446871428     8.040970682    -3.649034337
 C       -6.075911238     6.696715499    -3.620303962
 C       -5.026440542     6.230964102    -4.418755399
 C       -4.359079279     7.137171724    -5.254025359
 C       -4.736272526     8.476353406    -5.286249850
Si       -4.526655207     4.459885474    -4.390592805
 C       -5.199081335     3.613223006    -2.869131450
 C       -5.194946848     3.578461839    -5.938582511
 C       -2.624324800     4.348399894    -4.434976855
 C       -9.816605920    17.349383907    -2.727406706
 C       -9.371922211    17.264208397    -5.784128202
 C       -4.995418952    12.682242502    -1.408025910
 C       -5.390966537    12.557920053     1.652414276
 C       -0.652488854    -0.904370971    -1.543632197
 C       -0.623490279    -0.919171479     1.545238325
 H        1.168906237     2.690392906     0.629257308
 H        0.235052742     4.931948446     0.617736151
 H       -3.586872643     3.377056051    -0.605642012
 H       -2.692624846     1.116916093    -0.615094284
 H       -3.394854925     5.680150690    -0.306282119
 H       -0.633603593     6.768404072     0.576702148
 H       -4.258729629     7.494244584    -0.364513977
 H       -5.208086618     9.727364332    -0.387866587
 H       -1.378971668    11.333874981     0.921452516
 H       -0.460216289     9.076854302     0.900908619
 H       -2.091307232    13.650902064    -0.439600881
 H       -3.703116487    14.934200345     1.907821683
 H       -2.883333592    16.909698666     2.782976242
 H       -1.215930679    18.726016895     2.874223823
 H        0.895537308    16.923283028    -0.433883092
 H       -0.705552305    15.074309854    -0.448376732
 H        2.817223674    19.698283323     0.870638211
 H        1.999384417    18.967808845    -0.542913398
 H        2.588987699    17.942326035     0.803276284
 H       -0.450959859    22.530627884    -2.269109133
 H       -2.218184171    22.479136987    -2.015357822
 H       -1.520267674    22.226747128    -3.650514706
 H       -1.798934616    18.096078374    -1.377372658
 H       -3.854009787    16.824420910    -1.713851128
 H       -5.433379085    19.982420083    -4.179122644
 H       -3.402887490    21.284408087    -3.830897633
 H       -5.973614269    16.542658937    -2.626564867
 H       -7.091549695    18.857443948    -4.401010349
 H       -6.561602279    15.244328903    -5.479294411
 H       -5.975633986    12.890572286    -5.402225004
 H       -9.028020342    12.179505499    -2.450379873
 H       -9.676834373    14.522293895    -2.524667785
 H       -7.716827895    10.362650005    -3.134269006
 H       -5.531289241    10.944539883    -5.249223737
 H       -7.261935923     8.380614048    -3.013143154
 H       -6.631225883     6.035634604    -2.949781388
 H       -3.530577079     6.828868173    -5.898295175
 H       -4.205675543     9.165919023    -5.940125711
 H       -0.189715857    20.628009128     2.187359246
 H        1.040425818    21.138809411     1.008455202
 H       -1.710074943    19.850255384     0.360206021
 H       -1.274779014    21.543127063     0.155000631
 H        0.619385862    20.739413034    -1.482159590
 H       -0.105717831    19.117609769    -1.385705501
 H        2.262797414    -1.029468515    -0.045933774
 H        2.275387089     0.474333912     0.908575320
 H        2.260586154     0.548211921    -0.874370647
 H       -4.796767953     2.588805707    -2.773178632
 H       -6.299676441     3.536614531    -2.899228619
 H       -4.926001720     4.174065951    -1.956569050
 H       -4.841581436     2.509863842    -5.859218717
 C       -6.733577407     3.568963955    -5.999264899
 C       -4.656510362     4.161314157    -7.257766658
 H       -2.330816420     4.593217898    -5.496970841
 C       -1.929089143     5.362736071    -3.511795666
 C       -2.090776532     2.942164002    -4.106939087
 H      -10.687612326    16.640527612    -2.832516950
 C       -9.218886217    17.176396911    -1.318708679
 C      -10.356439404    18.784712056    -2.861188592
 H       -9.618341469    18.365554746    -5.760861809
 C       -8.418132395    17.018678169    -6.966899370
 C      -10.677762099    16.487121591    -6.027833879
 H       -5.813194015    11.910706429    -1.493647133
 C       -5.634664785    14.079548538    -1.467226918
 C       -4.043202869    12.501093016    -2.602877182
 H       -5.725527658    13.636331460     1.641390189
 C       -6.637879434    11.677719324     1.452667261
 C       -4.785124744    12.257673545     3.035174988
 H       -1.778103342    -0.889691514    -1.459458311
 C       -0.268654790    -0.191328029    -2.852742043
 C       -0.206808251    -2.375245703    -1.625555384
 H       -0.139734527    -1.937882927     1.511713307
 C       -0.196145828    -0.230670226     2.854401559
 C       -2.149905085    -1.116522621     1.567163977
 H       -7.201607999     3.083616784    -5.133601226
 H       -7.072252383     3.010204878    -6.883590148
 H       -7.163664846     4.576573448    -6.090285929
 H       -3.563094421     4.118228871    -7.340437902
 H       -4.966146230     5.203277653    -7.421577930
 H       -5.049271481     3.587905865    -8.109974428
 H       -2.235264744     6.403349787    -3.684488229
 H       -0.841223579     5.330988844    -3.664804104
 H       -2.090059688     5.147625240    -2.445391611
 H       -2.513762727     2.150777921    -4.736486184
 H       -2.255303018     2.663646756    -3.054407536
 H       -1.001871690     2.912700745    -4.260301539
 H       -8.847433079    16.162460415    -1.117819951
 H       -9.983178565    17.382197121    -0.556685633
 H       -8.390203014    17.873168445    -1.121523583
 H      -10.881568174    18.966506879    -3.807455486
 H       -9.572011326    19.547607075    -2.759935805
 H      -11.085732735    18.987477401    -2.063624885
 H       -7.463802814    17.555566871    -6.878245532
 H       -8.881068284    17.365865705    -7.901589010
 H       -8.190838359    15.953655594    -7.116237975
 H      -11.449340933    16.681835049    -5.271928185
 H      -10.525984116    15.399287069    -6.076008035
 H      -11.114374686    16.777893229    -6.994219128
 H       -6.423187782    14.230468886    -0.719260957
 H       -6.116928952    14.224317122    -2.447156253
 H       -4.905167860    14.894427829    -1.359298447
 H       -3.567351996    11.510865695    -2.632724951
 H       -3.250825377    13.259773592    -2.644362345
 H       -4.607309320    12.594158704    -3.542986115
 H       -7.169613157    11.883864336     0.514360964
 H       -7.359762424    11.861464725     2.261132035
 H       -6.412065907    10.602897628     1.484886104
 H       -3.915368769    12.883153769     3.278472627
 H       -4.475173251    11.208528562     3.145783480
 H       -5.528881144    12.442811182     3.822594928
 H       -0.606671725     0.854567217    -2.891812971
 H       -0.735298345    -0.698496995    -3.709138224
 H        0.812685231    -0.196623370    -3.043100007
 H       -0.511100795    -2.971295242    -0.755521787
 H        0.878850371    -2.488267581    -1.744835747
 H       -0.663278611    -2.857439746    -2.502188810
 H        0.891445084    -0.124178837     2.956805700
 H       -0.529153299    -0.823993311     3.718094733
 H       -0.641553667     0.767176002     2.977118619
 H       -2.528845333    -1.681383306     0.706168196
 H       -2.702071260    -0.167327043     1.618206702
 H       -2.441682749    -1.687960742     2.460392635

