187   

Si        0.000000000     0.000000000     0.000000000
 C        1.864949414     0.000000000     0.000000000
 C       -0.680932211     1.708409293     0.000000000
 C        0.142280198     2.825651835     0.168609995
 C       -0.398698682     4.111611529     0.164831746
 C       -1.773820868     4.304571078     0.014153733
 C       -2.598669026     3.183048273    -0.146558010
 C       -2.060474836     1.900486810    -0.156197261
 C       -2.391462446     5.624220685     0.003027027
 C       -1.729536372     6.786066886     0.133105480
 C       -2.371409679     8.095796928     0.118712684
 C       -3.751690679     8.246466090    -0.034503460
 C       -4.331961018     9.513526941    -0.043706717
 C       -3.537015284    10.658470805     0.060878091
 C       -2.151424332    10.511364718     0.204697805
 C       -1.578377120     9.243618811     0.242508918
Si       -4.270144039    12.344374452     0.051966426
 C       -3.581984796    13.204281372    -1.406396393
 C       -3.011766205    14.413226058    -1.477416313
 C       -2.497985891    14.985610912    -2.725752716
 C       -1.916258767    16.257337372    -2.710263699
 C       -1.416396979    16.837705074    -3.870963316
 C       -1.520846997    16.167263150    -5.101810481
 C       -2.091453580    14.878542149    -5.115742975
 C       -2.536835309    14.291655504    -3.942212684
 N       -1.032821386    16.700281049    -6.325192188
 C       -0.386644934    18.028634586    -6.213010692
 C       -2.011439121    16.639675080    -7.432120630
 C        0.171564209    18.553215092    -7.545659522
 C        1.240681338    17.636870060    -8.172686288
 N        2.512292561    17.515543878    -7.436097010
 C        2.513074192    16.511553278    -6.426075276
 C        2.384409831    15.177259422    -6.857431963
 C        2.377036945    14.146606358    -5.932382919
 C        2.497546245    14.411754042    -4.559758178
 C        2.646121018    15.736014259    -4.141964203
 C        2.675372497    16.780235405    -5.060922236
 C        3.104853528    18.806086461    -7.052656181
 C        2.484283142    13.287091316    -3.621181743
 C        2.592775423    13.434697664    -2.294817289
Si        2.583665691    12.081411407    -1.072437682
 C        1.594368751    10.620366491    -1.585892210
 C        0.407400678    10.757745938    -2.313453421
 C       -0.324820446     9.630733303    -2.690791370
 C        0.118843870     8.347796797    -2.358985776
 C        1.307976796     8.213476507    -1.629379087
 C        2.033652811     9.334893242    -1.242299187
 C       -0.593830445     7.128866538    -2.719847562
 C       -1.742511398     7.064870609    -3.413241923
 C       -2.413033400     5.811401677    -3.746489715
 C       -1.904430221     4.566149906    -3.364586084
 C       -2.569594861     3.388207673    -3.699023442
 C       -3.766173510     3.429286226    -4.422835622
 C       -4.282950337     4.675332905    -4.799131468
 C       -3.617718307     5.851208833    -4.458893837
Si       -4.632870180     1.864256280    -4.856893120
 C       -3.406492214     0.487133954    -5.142171921
 C       -5.789936434     1.383069505    -3.423611226
 C       -5.696065508     2.130591535    -6.412373389
 C        4.380514973    11.577193643    -0.702912741
 C        1.811275323    12.789983451     0.519447824
 C       -6.159696101    12.252054244    -0.202243820
 C       -3.971858392    13.225192053     1.707425262
 C       -0.659426284    -0.858022478    -1.568558142
 C       -0.618228182    -0.950098233     1.527150844
 H        1.223300784     2.733774433     0.299942219
 H        0.262007614     4.966979691     0.290776300
 H       -3.672448214     3.317988723    -0.268984005
 H       -2.751425301     1.062824831    -0.290397977
 H       -3.477707470     5.616727988    -0.131804030
 H       -0.643466468     6.806555179     0.258964414
 H       -4.388763531     7.370793505    -0.143825615
 H       -5.419202607     9.563837872    -0.141511819
 H       -1.477493981    11.372535714     0.277102008
 H       -0.497398296     9.146416689     0.348336210
 H       -3.685137271    12.583603260    -2.316841670
 H       -2.889442687    15.068510185    -0.608254764
 H       -1.846672507    16.809193549    -1.772896910
 H       -0.960388650    17.819833716    -3.804552324
 H       -2.132819253    14.317534691    -6.046951556
 H       -2.936959648    13.277023473    -3.977288288
 H       -1.462693167    16.626134070    -8.389414387
 H       -2.715567328    17.486739071    -7.431821569
 H       -2.603158645    15.710716462    -7.395110120
 H        3.198009316    19.436534136    -7.953371086
 H        4.126451950    18.629860059    -6.670029993
 H        2.538651286    19.364856682    -6.291767629
 H        2.289477130    14.963918202    -7.919627615
 H        2.269673614    13.117852195    -6.276784160
 H        2.740964000    15.966468323    -3.080532174
 H        2.801151225    17.797755017    -4.706207472
 H        2.357514543    12.310508872    -4.106394367
 H        2.722153007    14.433450518    -1.846166253
 H        0.017494851    11.739399331    -2.605536386
 H       -1.252633354     9.758893664    -3.245459751
 H        1.670981506     7.222784934    -1.363550468
 H        2.948722241     9.164338792    -0.668642574
 H       -0.112193165     6.206341274    -2.374167727
 H       -2.242571197     7.971421033    -3.760514336
 H       -0.979645733     4.503649994    -2.790513597
 H       -2.121418135     2.446777368    -3.366163694
 H       -5.215374821     4.770090236    -5.360887468
 H       -4.038922642     6.809513119    -4.754932005
 H       -1.084772117    18.790241449    -5.795303654
 H        0.458521596    17.913792650    -5.490157716
 H       -0.645813739    18.701674365    -8.276097509
 H        0.592308894    19.563370248    -7.375359572
 H        0.811408169    16.615947078    -8.310253105
 H        1.498278706    18.016514979    -9.188908253
 H        2.263176122    -1.029169414    -0.047845646
 H        2.273225998     0.471835976     0.910907118
 H        2.262684114     0.549667445    -0.872174159
 H       -3.916257326    -0.445665131    -5.439609515
 H       -2.815059733     0.271529047    -4.233849133
 H       -2.698704824     0.752980444    -5.948368328
 H       -6.361396640     0.478289079    -3.778953213
 C       -5.026390180     0.992716060    -2.145242478
 C       -6.806005659     2.486246547    -3.076675792
 H       -6.423863601     2.953828828    -6.154273445
 C       -4.866240570     2.594308981    -7.623654274
 C       -6.515922246     0.891899637    -6.816798510
 H        4.330625279    10.806520280     0.118912961
 C        5.070161671    10.938244687    -1.922101489
 C        5.249232444    12.745213590    -0.201145527
 H        2.587276304    13.480297591     0.958728015
 C        0.548679411    13.619341223     0.228457743
 C        1.480219643    11.714931517     1.568164575
 H       -6.538501051    11.515066534     0.562993771
 C       -6.872137493    13.594915283     0.040750118
 C       -6.552269393    11.739715430    -1.600664737
 H       -4.490045440    14.224480446     1.616226124
 C       -4.597856053    12.467661467     2.893752485
 C       -2.491474603    13.493224767     2.024291515
 H       -1.785185967    -0.806107937    -1.498179744
 C       -0.234108232    -0.131971721    -2.857747249
 C       -0.261351657    -2.340326194    -1.673207079
 H       -0.100212971    -1.952071146     1.489389926
 C       -0.226240974    -0.260230992     2.846813438
 C       -2.136781338    -1.201851321     1.535573620
 H       -4.355721288     0.135042189    -2.286746229
 H       -5.734993962     0.703209750    -1.356500367
 H       -4.430692011     1.823947986    -1.739291635
 H       -7.455158121     2.761068802    -3.917467559
 H       -6.327463705     3.406245200    -2.709982111
 H       -7.474548367     2.144527386    -2.273820444
 H       -4.276407222     3.501057213    -7.427146262
 H       -5.529839346     2.835301244    -8.466076717
 H       -4.173284751     1.823537343    -7.986809300
 H       -7.201408137     0.548727081    -6.031421681
 H       -5.888804802     0.039553841    -7.109701499
 H       -7.142895926     1.125852001    -7.689529583
 H        4.538495228    10.062597592    -2.319082024
 H        6.075800003    10.589908390    -1.648500865
 H        5.204162327    11.645478932    -2.753903777
 H        4.870792826    13.208062835     0.718710448
 H        5.370989318    13.539157482    -0.951523843
 H        6.261937111    12.386018188     0.032192780
 H        0.725657796    14.463332014    -0.452841929
 H        0.163465219    14.053620348     1.161504861
 H       -0.268385847    13.023276104    -0.205739219
 H        2.349954674    11.119417144     1.872464344
 H        0.701628435    11.014535657     1.231444124
 H        1.095696737    12.186291011     2.483813039
 H       -6.748130968    13.974800153     1.062866552
 H       -7.954787241    13.479100718    -0.112187980
 H       -6.547545149    14.384241645    -0.651628965
 H       -6.078037425    10.788035912    -1.875547892
 H       -6.321804126    12.464091267    -2.394664048
 H       -7.636842649    11.567511879    -1.646655891
 H       -5.680294311    12.315643898     2.795543478
 H       -4.452383842    13.036381057     3.823275163
 H       -4.138280621    11.482718556     3.061879883
 H       -1.983992414    14.081496248     1.247732080
 H       -1.914069584    12.570742644     2.181230648
 H       -2.403739049    14.069596211     2.956040478
 H       -0.535709267     0.925499154    -2.879872917
 H       -0.702774029    -0.607748350    -3.731362191
 H        0.849040246    -0.168670617    -3.033757052
 H       -0.596630433    -2.942696777    -0.819106068
 H        0.821614556    -2.487196143    -1.778833135
 H       -0.719956799    -2.790879440    -2.565439013
 H        0.856163113    -0.118065382     2.960860775
 H       -0.547246062    -0.872251440     3.701920983
 H       -0.705289258     0.721339451     2.974085592
 H       -2.495381310    -1.741620680     0.650153819
 H       -2.721167531    -0.275619290     1.628708763
 H       -2.408374526    -1.821671295     2.402553912

