187   

Si        0.000000000     0.000000000     0.000000000
 C        1.865201617     0.000000000     0.000000000
 C       -0.672041848     1.714212118     0.000000000
 C        0.142173244     2.813222907    -0.291679533
 C       -0.381891983     4.105925082    -0.287633117
 C       -1.732646562     4.327581571    -0.007073866
 C       -2.548231609     3.224772135     0.280300487
 C       -2.026056472     1.934694305     0.286737483
 C       -2.328591457     5.658520820     0.009605834
 C       -1.667774684     6.802777261    -0.236448791
 C       -2.280225971     8.127357496    -0.215553073
 C       -1.486804269     9.249037490    -0.489079591
 C       -2.034883048    10.529912550    -0.478675969
 C       -3.394021105    10.717074699    -0.201485381
 C       -4.188702254     9.597303300     0.070590696
 C       -3.635928291     8.318207358     0.065511603
Si       -4.158926860    12.393569376    -0.177621471
 C       -5.955944558    12.159930215    -0.407411097
 C       -6.968790686    12.660215489     0.311330815
 C       -8.375882131    12.382926110     0.004766340
 C       -9.380686997    12.944948919     0.805999943
 C      -10.720006301    12.704173536     0.545285284
 C      -11.103093780    11.940608166    -0.575281900
 C      -10.101291291    11.385029823    -1.385299683
 C       -8.760573090    11.590198755    -1.079063568
 N      -12.484863141    11.719639045    -0.802947398
 C      -13.317675603    12.935194538    -0.851771675
 C      -12.824959473    10.759458137    -1.866561066
 C      -13.009877285    13.863756992    -2.043945131
 C      -13.761692535    15.203853403    -1.924406856
 N      -12.969753312    16.315831105    -1.349624099
 C      -12.454685066    16.040144598    -0.054494445
 C      -13.378661081    15.729790025     0.963910962
 C      -12.933851045    15.452278444     2.246080178
 C      -11.571100472    15.529977989     2.568778127
 C      -10.663585699    15.873749531     1.563859375
 C      -11.093346141    16.135179203     0.267733716
 C      -12.004791251    16.868541291    -2.317297012
 C      -11.151888085    15.226868951     3.938675890
 C       -9.878797693    15.271137788     4.350176573
Si       -9.277616145    14.908074533     6.036435494
 C       -7.886243827    13.715465452     5.883504227
 C       -7.872726771    12.792972988     4.830932621
 C       -6.824569480    11.883088259     4.702500746
 C       -5.779176465    11.865169822     5.630405818
 C       -5.802727681    12.782228899     6.689705511
 C       -6.845786387    13.695401091     6.818903524
 C       -4.659298838    10.935664295     5.543801489
 C       -4.498451842    10.002884300     4.589628537
 C       -3.365957906     9.084678366     4.527700122
 C       -2.338297110     9.103350820     5.475220042
 C       -1.271089999     8.212048533     5.386192585
 C       -1.203564079     7.285314172     4.339370152
 C       -2.226118011     7.271460336     3.383753468
 C       -3.290890424     8.165010503     3.475071081
Si        0.219339511     6.121716726     4.250305998
 C        0.827498753     5.667851040     5.954493643
 C       -0.271353423     4.557657382     3.291000394
 C        1.616987272     6.980670148     3.280925143
 C       -8.682323126    16.525790465     6.836780975
 C      -10.640236089    14.141355199     7.115108630
 C       -3.714220903    13.340530378     1.402930597
 C       -3.502991150    13.393472290    -1.660574067
 C       -0.616772326    -0.924236563    -1.544377929
 C       -0.658578873    -0.894793329     1.546064453
 H        1.204671851     2.701197456    -0.524373912
 H        0.274434830     4.944426770    -0.513840461
 H       -3.602812661     3.375544079     0.504317867
 H       -2.709473250     1.114153872     0.522730414
 H       -3.397786787     5.673752096     0.243642313
 H       -0.600521965     6.792835682    -0.474620737
 H       -0.428383792     9.122761867    -0.707252808
 H       -1.367642999    11.369117031    -0.691373219
 H       -5.256440473     9.683759559     0.300315593
 H       -4.276210638     7.463552147     0.276884420
 H       -6.161048343    11.519477274    -1.285781607
 H       -6.822606206    13.307021516     1.184587116
 H       -9.109350820    13.561920709     1.664927817
 H      -11.481632517    13.119716954     1.205293337
 H      -10.355660247    10.792045420    -2.257718145
 H       -8.003679094    11.131763367    -1.717040009
 H      -13.912478336    10.572594317    -1.847554671
 H      -12.329798536     9.794556848    -1.655759606
 H      -12.546379146    11.089354852    -2.879264067
 H      -12.548043919    17.176272163    -3.227312048
 H      -11.204613037    16.170352254    -2.609988718
 H      -11.546969838    17.780121241    -1.893742678
 H      -14.442422983    15.712915215     0.739453432
 H      -13.658029080    15.188772372     3.016972018
 H       -9.598136221    15.947269667     1.789337888
 H      -10.356887451    16.382988928    -0.491442999
 H      -11.984601572    14.955467086     4.599207885
 H       -9.067157174    15.558190223     3.659150733
 H       -8.670008170    12.756056121     4.080058944
 H       -6.835158065    11.173272585     3.875600012
 H       -4.999239706    12.781958006     7.423477184
 H       -6.812018336    14.385041397     7.666143675
 H       -3.917795131    11.044274180     6.341245973
 H       -5.235730230     9.882670728     3.790038141
 H       -2.365669724     9.815049221     6.297970776
 H       -0.501449270     8.270705327     6.160518111
 H       -2.219111951     6.577913619     2.536101537
 H       -4.069529941     8.149112064     2.713507042
 H      -14.384661291    12.621437346    -0.871806768
 H      -13.177280164    13.484288440     0.108904623
 H      -11.917646404    14.039648419    -2.101938963
 H      -13.278055940    13.362620520    -2.990233248
 H      -14.121178117    15.527561826    -2.926848517
 H      -14.678555055    15.084822973    -1.304485912
 H        2.262602469    -1.029777736     0.046178917
 H        2.263025100     0.547764227     0.873570569
 H        2.274308787     0.472907843    -0.909912700
 H        1.642972226     4.925135325     5.901136731
 H        0.012808005     5.224279179     6.555562244
 H        1.210120106     6.544506076     6.504190766
 H       -0.569161851     4.911169229     2.257690161
 C        0.889959886     3.561079247     3.126529897
 C       -1.479860145     3.821853521     3.896095749
 H        2.497430011     6.277618801     3.317448026
 C        1.261543493     7.228284073     1.803640560
 C        2.044124093     8.316283992     3.916793756
 H       -8.318825812    16.247886043     7.868402121
 C       -7.507389401    17.164804239     6.074567002
 C       -9.804104062    17.567518437     6.993422473
 H      -11.507550195    14.862382070     7.082542968
 C      -11.123501897    12.783479650     6.573248959
 C      -10.220885065    13.966526711     8.585567319
 H       -4.295451142    14.307461860     1.355860109
 C       -4.130138193    12.592945508     2.677321646
 C       -2.216922955    13.686025205     1.505590261
 H       -2.395297503    13.516723425    -1.485928030
 C       -3.692480982    12.661422608    -3.001005630
 C       -4.129414327    14.795309575    -1.762146515
 H       -0.123682375    -1.938690651    -1.510309752
 C       -2.140960711    -1.136945183    -1.568698040
 C       -0.194812033    -0.232183218    -2.853531269
 H       -1.782129733    -0.913856413     1.436803517
 C       -0.172220534    -2.350243710     1.663183880
 C       -0.326401817    -0.148779292     2.850836701
 H        1.777971090     3.998243375     2.653179156
 H        0.575796083     2.734159075     2.470812098
 H        1.202112525     3.104849324     4.073960771
 H       -2.360179687     4.465721768     4.029586814
 H       -1.257523218     3.359177931     4.865751908
 H       -1.794604496     3.009480302     3.223363800
 H        1.076182023     6.300345258     1.246924055
 H        2.093511032     7.735101268     1.295316974
 H        0.381777943     7.878077646     1.679439432
 H        2.387184537     8.215510024     4.954017711
 H        1.242925501     9.069904780     3.901203828
 H        2.884458345     8.749275023     3.356343573
 H       -6.649001451    16.489775420     5.949661393
 H       -7.132383751    18.039132086     6.625495895
 H       -7.791965284    17.528434598     5.077652334
 H      -10.644286619    17.214063188     7.604996664
 H      -10.212515318    17.905496996     6.030302220
 H       -9.416121210    18.466042367     7.494521944
 H      -11.475122600    12.823304176     5.532910981
 H      -11.969262500    12.417647547     7.171976958
 H      -10.349142807    12.004147572     6.627564956
 H       -9.960600579    14.910927376     9.080234307
 H       -9.373771980    13.277038861     8.710641840
 H      -11.051357020    13.536536686     9.164408484
 H       -5.197371033    12.333563441     2.707995427
 H       -3.946663086    13.216078366     3.565190775
 H       -3.556204686    11.666820782     2.835583030
 H       -1.854358452    14.314428686     0.683318052
 H       -1.575855355    12.794453679     1.560077243
 H       -2.027629740    14.251555635     2.430116886
 H       -3.239452211    11.660228884    -3.018296788
 H       -3.213048938    13.228783750    -3.811252502
 H       -4.748391692    12.553277821    -3.283781097
 H       -3.949535976    15.416965933    -0.875439179
 H       -5.214747122    14.767705574    -1.934765519
 H       -3.696546773    15.340698137    -2.612753024
 H       -2.515815694    -1.705130666    -0.707999939
 H       -2.425099304    -1.712387631    -2.461943687
 H       -2.703023003    -0.193931813    -1.622140297
 H        0.891738276    -0.115138181    -2.955283593
 H       -0.649733806     0.761136392    -2.977213564
 H       -0.521152243    -0.829070208    -3.717325861
 H       -0.432912878    -2.968024097     0.794251058
 H       -0.639960639    -2.833267438     2.533561342
 H        0.912380387    -2.428564636     1.815811938
 H       -0.710958408     0.881834198     2.871952860
 H        0.750582681    -0.105109664     3.059783363
 H       -0.786014829    -0.663274865     3.706925929

