187   

Si        0.000000000     0.000000000     0.000000000
 C        1.865611912     0.000000000     0.000000000
 C       -0.676292797     1.711632730     0.000000000
 C        0.156680364     2.818377020     0.191759724
 C       -0.368633546     4.110522138     0.189530459
 C       -1.737041711     4.323858579     0.008414523
 C       -2.571628995     3.213829067    -0.181033810
 C       -2.048793947     1.924098872    -0.188787016
 C       -2.331979985     5.654751373    -0.001478822
 C       -1.654403823     6.804591143     0.158015605
 C       -2.274680221     8.125186750     0.143976365
 C       -3.650329837     8.292241109    -0.040734419
 C       -4.215537784     9.564027677    -0.049721805
 C       -3.413756581    10.699628871     0.120463974
 C       -2.037349485    10.537879412     0.305634733
 C       -1.476181226     9.261612901     0.319797516
Si       -4.212486670    12.351148747     0.099959285
 C       -3.075387763    13.631697198    -0.532994486
 C       -2.792875044    14.812341330     0.032241789
 C       -1.861779425    15.783484372    -0.550890832
 C       -1.626556799    16.996573285     0.112458947
 C       -0.751289049    17.935614070    -0.413823446
 C       -0.076925388    17.669926646    -1.617546874
 C       -0.260114630    16.438530840    -2.253273073
 C       -1.106274997    15.490106327    -1.689531908
 N        0.809561806    18.689299747    -2.095463137
 C        0.080725860    19.781645869    -2.783711424
 C        1.950055147    18.181960569    -2.880328999
 C       -0.628914961    19.394324399    -4.097695721
 C       -2.161433522    19.306573208    -3.939562654
 N       -2.849009350    18.535367311    -5.006639879
 C       -2.526130548    17.141593908    -4.907629781
 C       -3.266477127    16.399565078    -3.971908909
 C       -3.014913926    15.045840285    -3.815693862
 C       -2.081688173    14.384158698    -4.629574199
 C       -1.376497572    15.126591133    -5.579251507
 C       -1.590042303    16.494659480    -5.720743781
 C       -2.659234504    19.116483199    -6.347218709
 C       -1.850602359    12.950368066    -4.425274245
 C       -0.982099330    12.234027716    -5.150576733
Si       -0.632749146    10.450433080    -4.964427416
 C       -2.009746284     9.399850430    -4.360912468
 C       -3.353121528     9.754014903    -4.501909744
 C       -4.358426362     8.912441560    -4.021838970
 C       -4.040963117     7.707643639    -3.391315008
 C       -2.692347020     7.351965038    -3.255522190
 C       -1.689146981     8.183306421    -3.739639866
 C       -5.046680423     6.789796252    -2.870664094
 C       -6.374580063     6.986252780    -2.923544588
 C       -7.360859879     6.050267544    -2.394096740
 C       -7.000175113     4.849442251    -1.776544617
 C       -7.972875671     3.980803356    -1.283014111
 C       -9.330325682     4.298815069    -1.390137274
 C       -9.694738727     5.503100026    -2.007430074
 C       -8.721372230     6.365640167    -2.504244802
Si      -10.625862985     3.162649160    -0.743608666
 C       -9.893763780     1.835424142     0.344160369
 C      -11.887857050     4.195415455     0.238552760
 C      -11.526072062     2.331293545    -2.200091606
 C       -0.062414449     9.788155689    -6.653266155
 C        0.807617672    10.332690409    -3.719652949
 C       -5.720975581    12.330834171    -1.063475479
 C       -4.809675100    12.759054438     1.857314394
 C       -0.662534036    -0.893464602    -1.544619718
 C       -0.604344350    -0.930684299     1.546709463
 H        1.234370651     2.712990721     0.343929982
 H        0.301900137     4.955466815     0.334622561
 H       -3.641189599     3.358426581    -0.324251523
 H       -2.746094088     1.096557741    -0.347416150
 H       -3.417564474     5.665851628    -0.144493801
 H       -0.571838796     6.803278033     0.307804576
 H       -4.295875028     7.426824875    -0.187475455
 H       -5.297820878     9.626397272    -0.200761768
 H       -1.368040004    11.393039666     0.440107628
 H       -0.404009806     9.150305915     0.468516423
 H       -2.592707904    13.331200033    -1.481854279
 H       -3.243031410    15.148414454     0.973335192
 H       -2.147773219    17.214452268     1.043406881
 H       -0.569346670    18.876083468     0.102641970
 H        0.259084458    16.206554943    -3.179758643
 H       -1.179792551    14.506666473    -2.160529310
 H        2.678578082    19.002143889    -3.002374507
 H        1.693171017    17.795314995    -3.878001283
 H        2.450984713    17.378560478    -2.312167420
 H       -3.111294164    20.123621323    -6.354773272
 H       -3.207075003    18.504595190    -7.085075707
 H       -1.612754268    19.203263021    -6.673449062
 H       -4.017512129    16.901569512    -3.363355306
 H       -3.584712113    14.486176037    -3.070290795
 H       -0.645950503    14.638544687    -6.224238986
 H       -1.026810985    17.051440358    -6.463320701
 H       -2.469451120    12.510195256    -3.631779307
 H       -0.375506744    12.712396141    -5.937961404
 H       -3.657022381    10.687553612    -4.984872993
 H       -5.399824367     9.202504100    -4.148258513
 H       -2.422476566     6.419381669    -2.759373354
 H       -0.656063504     7.848781107    -3.603540979
 H       -4.638009250     5.880141508    -2.417518586
 H       -6.790235813     7.888038849    -3.379537829
 H       -5.950126417     4.578266197    -1.678350074
 H       -7.630107811     3.055479686    -0.811424032
 H      -10.740404582     5.804055298    -2.118158420
 H       -9.024493933     7.295274132    -2.982022410
 H       -0.648347879    20.204219218    -2.056297464
 H        0.820598475    20.590286975    -2.978740894
 H       -0.376147120    20.122898480    -4.887403060
 H       -0.243603253    18.419690394    -4.457862267
 H       -2.414866131    18.827535397    -2.964924708
 H       -2.608570859    20.323075346    -3.919935229
 H        2.263677710    -1.030163414    -0.026671236
 H        2.273874065     0.490954959     0.900859667
 H        2.262392523     0.531300464    -0.884018164
 H      -10.682448669     1.186568561     0.765354916
 H       -9.341135357     2.278627002     1.192469981
 H       -9.194281947     1.188698348    -0.213657156
 H      -12.317579791     4.937479570    -0.495668223
 C      -13.052839885     3.365067243     0.805627659
 C      -11.233891247     4.990460256     1.383227062
 H      -12.262141027     1.614459669    -1.733601063
 C      -12.314251475     3.315909793    -3.082211313
 C      -10.572675308     1.520865876    -3.097289369
 H        0.811848981    10.429394323    -6.964010363
 C        0.413461821     8.326103134    -6.602047338
 C       -1.158527378     9.921144967    -7.725689600
 H        1.095465295     9.243859291    -3.670210754
 C        2.049896641    11.133560246    -4.147093021
 C        0.379344844    10.783359456    -2.312508204
 H       -6.436396343    11.572973301    -0.631462136
 C       -6.447810944    13.685636318    -1.129558392
 C       -5.361203783    11.886244066    -2.490962703
 H       -5.230624964    13.804642702     1.811002547
 C       -5.923582370    11.818642151     2.350703608
 C       -3.661961633    12.748911859     2.883557026
 H       -1.786789855    -0.892882234    -1.442272436
 C       -0.309180300    -0.155664243    -2.848816242
 C       -0.199259591    -2.356834313    -1.654398417
 H       -0.089972860    -1.934685032     1.515755433
 C       -0.197759807    -0.225387372     2.853682134
 C       -2.123543385    -1.176228520     1.572287019
 H      -13.615182152     2.821956839     0.035142432
 H      -13.776336726     4.025983528     1.305028421
 H      -12.731330056     2.636174358     1.561368286
 H      -10.424012073     5.652271468     1.044487288
 H      -10.826079796     4.347311986     2.174365815
 H      -11.979027517     5.639329318     1.865310334
 H      -13.076206414     3.881750772    -2.531414459
 H      -12.850780396     2.766819342    -3.869846055
 H      -11.666397847     4.036898050    -3.600493756
 H      -10.025543320     0.737083562    -2.557940744
 H       -9.831916805     2.150296324    -3.611260415
 H      -11.142073273     1.009651221    -3.886827198
 H        1.256547709     8.165584876    -5.918083689
 H        0.760208955     8.008340775    -7.595988882
 H       -0.385951365     7.625459614    -6.319653770
 H       -1.514389175    10.951346214    -7.862316486
 H       -2.036564633     9.292110022    -7.518910605
 H       -0.772582112     9.596409425    -8.702345025
 H        2.452667019    10.828926442    -5.120826929
 H        2.860938527    10.982642082    -3.420155814
 H        1.867872283    12.217112501    -4.182093745
 H       -0.485170176    10.223888391    -1.920778012
 H        0.129006350    11.853151872    -2.262477196
 H        1.198653933    10.623481878    -1.598439618
 H       -6.826593405    14.024665306    -0.157295734
 H       -7.323644537    13.610623796    -1.789584142
 H       -5.821164051    14.490385529    -1.540650213
 H       -4.805740300    10.935827025    -2.523728315
 H       -4.769726730    12.634196927    -3.036939777
 H       -6.276099171    11.729515794    -3.079070759
 H       -6.827041106    11.848934373     1.728471859
 H       -6.239982664    12.108843903     3.363073869
 H       -5.599707373    10.770162992     2.421623456
 H       -2.838317645    13.429589371     2.628654288
 H       -3.229577283    11.748056035     3.027971769
 H       -4.032598169    13.067811965     3.867805092
 H       -0.661015511     0.885793421    -2.866918069
 H       -0.785123731    -0.654660211    -3.705057028
 H        0.768714349    -0.144478052    -3.057649651
 H       -0.479742014    -2.968156522    -0.786957297
 H        0.885551043    -2.453111755    -1.794825423
 H       -0.665311440    -2.833115230    -2.529337955
 H        0.885902108    -0.082608670     2.954446002
 H       -0.509944724    -0.827138860     3.719299147
 H       -0.674898021     0.757886994     2.974462253
 H       -2.490265592    -1.735668523     0.702531450
 H       -2.704423995    -0.246329288     1.646273042
 H       -2.391395591    -1.774230197     2.455734425

