187   

Si        0.000000000     0.000000000     0.000000000
 C        1.865560122     0.000000000     0.000000000
 C       -0.678020686     1.710849039     0.000000000
 C        0.117589751     2.800062448    -0.369379273
 C       -0.406309889     4.091996851    -0.365798394
 C       -1.735073002     4.326052135    -0.003306418
 C       -2.532322654     3.232884052     0.360722053
 C       -2.012317736     1.941396378     0.361393993
 C       -2.319372387     5.662718027     0.012791887
 C       -1.658201909     6.786613116    -0.311647130
 C       -2.234786097     8.126282040    -0.298160217
 C       -1.421159632     9.207881697    -0.662396351
 C       -1.925484582    10.503946282    -0.665035740
 C       -3.262967819    10.747436915    -0.317270583
 C       -4.076825505     9.671286234     0.043310931
 C       -3.563488022     8.373523716     0.056368156
Si       -3.867012292    12.477158483    -0.340136531
 C       -5.674292390    12.725471074    -0.441210850
 C       -6.370873336    13.527548017     0.374413101
 C       -7.817633461    13.728896534     0.296610338
 C       -8.424547910    14.598875143     1.214302629
 C       -9.790295578    14.825958417     1.185631279
 C      -10.581955510    14.263752744     0.162856671
 C       -9.972196620    13.411649998    -0.771672483
 C       -8.612993586    13.132379764    -0.683546883
 N      -11.974940575    14.520081872     0.169456648
 C      -12.338253915    15.939211675     0.378380425
 C      -12.758018967    13.899374392    -0.913289862
 C      -11.633737079    16.933321879    -0.569762904
 C      -10.777233647    17.931516565     0.233959302
 N      -10.131922018    18.978628860    -0.563754177
 C       -8.944997242    18.698083307    -1.259636229
 C       -8.292378526    17.452469413    -1.179496711
 C       -7.120886758    17.228424737    -1.888741568
 C       -6.518787282    18.246271069    -2.642104384
 C       -7.152752599    19.491741233    -2.694724378
 C       -8.344180775    19.721480764    -2.023059560
 C      -11.078536603    19.894448524    -1.221472870
 C       -5.282915680    17.962561375    -3.374074900
 C       -4.621890415    18.855932899    -4.124260957
Si       -3.076310084    18.486078020    -5.034498568
 C       -2.111674602    17.187602415    -4.155116350
 C       -1.761665526    17.386331207    -2.811944030
 C       -1.032692618    16.421236540    -2.122690642
 C       -0.598433653    15.254587535    -2.766620467
 C       -0.935773716    15.065723980    -4.109214385
 C       -1.689121479    16.018313937    -4.794830802
 C        0.162786305    14.271625369    -2.002636690
 C        0.612635612    13.104448854    -2.493791396
 C        1.373463699    12.121559770    -1.730896996
 C        1.712016302    12.308066341    -0.388358289
 C        2.441379932    11.341146767     0.303308040
 C        2.823687256    10.152981240    -0.326996523
 C        2.473727203     9.958274237    -1.670244412
 C        1.758621185    10.931269205    -2.362257905
Si        3.786463183     8.865616016     0.569973921
 C        4.241954149     9.421846520     2.290824938
 C        2.768569808     7.263239249     0.711522624
 C        5.349556650     8.500302792    -0.452163679
 C       -3.548851282    17.893735576    -6.782520107
 C       -2.040221133    20.071005785    -5.196831046
 C       -3.147732240    13.394641393     1.163458267
 C       -3.247382425    13.308055604    -1.939774060
 C       -0.619373677    -0.917031116    -1.548475389
 C       -0.652228048    -0.909168548     1.540273734
 H        1.163657433     2.680742038    -0.663785184
 H        0.232414899     4.925532954    -0.656559570
 H       -3.570390445     3.391978360     0.646222884
 H       -2.681954303     1.128172056     0.654737043
 H       -3.368869975     5.701237157     0.317253992
 H       -0.606752674     6.746048542    -0.616651241
 H       -0.381592982     9.039693486    -0.944043519
 H       -1.238539520    11.308756811    -0.954367518
 H       -5.125007558     9.807071069     0.323400333
 H       -4.213549666     7.549965911     0.344319459
 H       -6.164283796    12.162329420    -1.250723086
 H       -5.903472794    14.103159400     1.185280196
 H       -7.819180281    15.082616860     1.982041868
 H      -10.251676122    15.439559085     1.954592566
 H      -10.547649101    12.960035735    -1.573355299
 H       -8.165055471    12.451698172    -1.408813604
 H      -13.832176008    14.073305980    -0.730178258
 H      -12.608371780    12.805032341    -0.892137283
 H      -12.509281245    14.276913192    -1.917728622
 H      -12.040057794    19.914651189    -0.683929476
 H      -11.273475831    19.626622155    -2.272995767
 H      -10.670530182    20.921447354    -1.189211869
 H       -8.713121394    16.639839155    -0.589948176
 H       -6.653849275    16.241745954    -1.838748657
 H       -6.708297831    20.302574295    -3.272972884
 H       -8.804988339    20.701999947    -2.082099498
 H       -4.932233119    16.928809282    -3.238073298
 H       -4.992732142    19.883268128    -4.250117893
 H       -2.067528704    18.281531277    -2.260130640
 H       -0.791273782    16.581750801    -1.073527628
 H       -0.613024105    14.168054939    -4.633148582
 H       -1.923429337    15.811518685    -5.842629660
 H        0.372488448    14.558966507    -0.967652973
 H        0.413153370    12.823567247    -3.532226867
 H        1.414296167    13.217638486     0.130243330
 H        2.686146766    11.547270267     1.348985065
 H        2.747186544     9.049662826    -2.214185230
 H        1.496878629    10.762861821    -3.405247889
 H      -13.441675001    16.037061333     0.281661884
 H      -12.119314172    16.180282684     1.444309467
 H      -10.995097887    16.397673692    -1.299203395
 H      -12.376595113    17.472479798    -1.181788719
 H      -11.410056544    18.444441246     0.997033275
 H       -9.989956446    17.387686146     0.808816480
 H        2.262942661    -1.029226279     0.054217130
 H        2.260602436     0.554875722     0.870418065
 H        2.275942715     0.467136440    -0.912130287
 H        4.840352006     8.653399588     2.812058371
 H        3.345552723     9.618202476     2.905836727
 H        4.844192084    10.347573990     2.264683314
 H        3.402710270     6.565949905     1.333704293
 C        1.431112184     7.468539377     1.443465293
 C        2.497450629     6.575377931    -0.638298564
 H        4.984799528     8.161103379    -1.465137141
 C        6.220870139     9.751842469    -0.663324174
 C        6.220534066     7.376551936     0.136688679
 H       -2.589079950    17.553233936    -7.267297559
 C       -4.526743243    16.704460969    -6.753810378
 C       -4.152668274    19.004749490    -7.660505470
 H       -2.682643428    20.797216758    -5.775131414
 C       -1.702220309    20.717343640    -3.841526887
 C       -0.735758564    19.854324361    -5.984271441
 H       -3.557945374    14.444946524     1.112960294
 C       -3.593496384    12.762827885     2.495256060
 C       -1.612042323    13.487686661     1.154511746
 H       -2.143535971    13.484881531    -1.791582800
 C       -3.422173396    12.424177444    -3.186807306
 C       -3.927814580    14.663394547    -2.192071008
 H       -0.135075074    -1.935463581    -1.515983391
 C       -2.145617052    -1.115047976    -1.573497562
 C       -0.190102607    -0.225485173    -2.855524678
 H       -1.776886624    -0.916207683     1.442924044
 C       -0.179801611    -2.370806073     1.636570052
 C       -0.297495717    -0.179855609     2.848816412
 H        1.546180045     7.858520379     2.463040992
 H        0.903324871     6.507902647     1.544584226
 H        0.743185404     8.142852678     0.912371423
 H        3.403796763     6.389331492    -1.228063287
 H        1.796190067     7.138622460    -1.269100307
 H        2.044388642     5.586789900    -0.465604656
 H        5.678856122    10.582880387    -1.136581071
 H        7.062904627     9.516717553    -1.330022988
 H        6.661202304    10.130933029     0.268429360
 H        5.684967958     6.425107201     0.250144085
 H        6.651835101     7.636084868     1.112701646
 H        7.071037759     7.172514755    -0.530047497
 H       -4.162553645    15.844315375    -6.176272121
 H       -4.705261768    16.337830580    -7.774091067
 H       -5.512120758    16.976506570    -6.346127674
 H       -3.475408013    19.854143827    -7.815716556
 H       -5.099171206    19.397091540    -7.263597361
 H       -4.380761559    18.609906603    -8.661131233
 H       -2.584112788    20.908185412    -3.214960831
 H       -1.220563198    21.692771767    -4.000476116
 H       -0.993715724    20.120117256    -3.250647521
 H       -0.897997868    19.479875042    -7.003232316
 H       -0.042582844    19.163698606    -5.482980365
 H       -0.196289291    20.806699780    -6.089230655
 H       -4.683457326    12.687499561     2.606389025
 H       -3.238937352    13.370479339     3.339267588
 H       -3.178949713    11.755434944     2.646467075
 H       -1.219275853    14.014263835     0.274884134
 H       -1.122669353    12.504042775     1.205226409
 H       -1.263867468    14.048903661     2.032972348
 H       -2.922574850    11.449146494    -3.103178325
 H       -2.977947956    12.924005493    -4.060272328
 H       -4.474332079    12.237808420    -3.437688459
 H       -3.764473489    15.389693483    -1.384661723
 H       -5.010213557    14.577904634    -2.358382791
 H       -3.507031223    15.121692040    -3.101619809
 H       -2.524735223    -1.687385065    -0.717419396
 H       -2.436397090    -1.679094001    -2.471698892
 H       -2.698686860    -0.165970735    -1.616606814
 H        0.897437759    -0.117305369    -2.955424133
 H       -0.636823791     0.771898783    -2.977120153
 H       -0.520443840    -0.817622771    -3.720994450
 H       -0.458721245    -2.976251738     0.764533220
 H       -0.641200432    -2.857364748     2.508282765
 H        0.905792402    -2.461967908     1.773804865
 H       -0.653074472     0.860227226     2.875982105
 H        0.781195224    -0.165495652     3.053498994
 H       -0.767779327    -0.687534712     3.702973569

