187   

Si        0.000000000     0.000000000     0.000000000
 C        1.865130437     0.000000000     0.000000000
 C       -0.675423212     1.712607200     0.000000000
 C        0.090336210     2.784177071    -0.471089453
 C       -0.425527254     4.079964934    -0.469176058
 C       -1.718404401     4.333562695    -0.003516830
 C       -2.486660809     3.258018682     0.461853200
 C       -1.974553804     1.963446003     0.461130071
 C       -2.300311774     5.671415374     0.017702798
 C       -1.675020869     6.785960905    -0.397953320
 C       -2.260292151     8.122563840    -0.375228160
 C       -1.495722013     9.201299317    -0.839741930
 C       -2.012563808    10.494113129    -0.836988828
 C       -3.311339455    10.737947771    -0.372781548
 C       -4.076029861     9.663375292     0.092546331
 C       -3.553038123     8.370690582     0.093905675
Si       -3.998288514    12.444870456    -0.367388553
 C       -5.812843797    12.376137692    -0.162576409
 C       -6.525765538    13.079417707     0.726748027
 C       -7.980799587    12.997836687     0.861666433
 C       -8.615215744    13.786130547     1.832996656
 C       -9.988870052    13.747883898     2.003312093
 C      -10.788832331    12.933238883     1.172239725
 C      -10.153153840    12.140797220     0.197227203
 C       -8.770566648    12.166666474     0.063702297
 N      -12.178911943    12.905777589     1.357790786
 C      -12.839543844    14.142056364     1.807927769
 C      -12.970952018    12.090192932     0.426748078
 C      -12.568453916    15.382549376     0.939665237
 C      -13.335440659    15.321701473    -0.392398880
 N      -12.955888521    16.355998933    -1.363519558
 C      -11.720153751    16.228046524    -2.032180877
 C      -10.864092340    15.126633125    -1.850237825
 C       -9.658355410    15.052402764    -2.534910786
 C       -9.291048166    16.034448279    -3.462954357
 C      -10.159170214    17.113318233    -3.665285149
 C      -11.353792150    17.215205332    -2.969364322
 C      -13.303656493    17.719900546    -0.924141917
 C       -8.010205880    15.919057778    -4.164110709
 C       -7.578495088    16.810092221    -5.066388945
Si       -6.004604246    16.754548620    -5.989730135
 C       -6.328649855    16.993453207    -7.785003818
 C       -7.606263013    16.760725145    -8.308443260
 C       -7.854309387    16.940782168    -9.666949394
 C       -6.832450090    17.346369124   -10.535197352
 C       -5.556570389    17.571649988   -10.009969256
 C       -5.305443514    17.396464848    -8.649923620
 C       -7.142897626    17.521092156   -11.950182291
 C       -6.260390962    17.908689184   -12.886610617
 C       -6.573716059    18.082609347   -14.301127079
 C       -7.849656889    17.856840556   -14.823704717
 C       -8.105737233    18.035249788   -16.183148416
 C       -7.090158550    18.450712322   -17.049844899
 C       -5.809455913    18.678868213   -16.528033127
 C       -5.555689942    18.494604238   -15.171811386
Si       -7.411393205    18.690875811   -18.846347932
 C       -9.238112980    18.677585673   -19.224658931
 C       -6.642505764    20.351121902   -19.371630486
 C       -6.574802963    17.296034857   -19.835099186
 C       -4.889259437    18.164080809    -5.362665769
 C       -5.123401831    15.091274330    -5.734067869
 C       -3.189931231    13.446705550     1.032469356
 C       -3.591700687    13.278115006    -2.026832135
 C       -0.626988483    -0.909405532    -1.549992142
 C       -0.648926298    -0.919428854     1.535845321
 H        1.108213476     2.648172457    -0.846851102
 H        0.192400438     4.897057598    -0.836970283
 H       -3.496601988     3.433311554     0.827896474
 H       -2.621725494     1.164868025     0.834310140
 H       -3.321002315     5.719480183     0.408897129
 H       -0.654719460     6.739403723    -0.789328653
 H       -0.485981897     9.029575142    -1.207294799
 H       -1.369908641    11.295975683    -1.210593322
 H       -5.094813485     9.796616555     0.471063003
 H       -4.166343736     7.551315675     0.464488292
 H       -6.305081133    11.685341436    -0.867072191
 H       -6.066219670    13.782335860     1.434099017
 H       -8.018806917    14.438583403     2.471980047
 H      -10.446220761    14.348212453     2.783902423
 H      -10.729040395    11.497657699    -0.459874704
 H       -8.302421779    11.534108009    -0.692600652
 H      -14.042444892    12.154296573     0.677749838
 H      -12.678418263    11.029187500     0.543802207
 H      -12.843957467    12.373253199    -0.632360308
 H      -14.222916911    17.704346457    -0.316963824
 H      -13.515926433    18.344191509    -1.810688584
 H      -12.504535910    18.201574193    -0.337660282
 H      -11.114010573    14.332793242    -1.150165398
 H       -8.994175666    14.207277244    -2.343604621
 H       -9.900732908    17.892058215    -4.384639840
 H      -12.010976137    18.058780899    -3.158231283
 H       -7.436558358    15.027423442    -3.880213624
 H       -8.184008526    17.698279529    -5.317094137
 H       -8.441225765    16.436784181    -7.678215936
 H       -8.854669376    16.760408003   -10.056049406
 H       -4.745388496    17.886868677   -10.663365179
 H       -4.288864755    17.588509379    -8.296115059
 H       -8.182080531    17.309314713   -12.219200737
 H       -5.221252959    18.120444681   -12.618663771
 H       -8.658950845    17.536690273   -14.169954917
 H       -9.123584545    17.842096603   -16.532984021
 H       -4.977044104    19.005890686   -17.157537447
 H       -4.554442831    18.675538344   -14.785460351
 H      -13.934355988    13.956870830     1.881715357
 H      -12.500414645    14.338974532     2.854011743
 H      -12.849610937    16.294465742     1.497262424
 H      -11.480116959    15.485649449     0.747039754
 H      -13.201760034    14.328920958    -0.880308814
 H      -14.430423951    15.419559576    -0.208355369
 H        2.263020877    -1.029115767     0.053316152
 H        2.259444443     0.554571798     0.871127844
 H        2.276510164     0.468677698    -0.910909155
 H       -9.423879256    18.869031530   -20.296618396
 H       -9.767520330    19.460294802   -18.651557554
 H       -9.700180718    17.706249687   -18.975596062
 H       -5.538212798    20.262696831   -19.154412621
 C       -6.804583897    20.655986289   -20.871428507
 C       -7.188824594    21.537231166   -18.556407468
 H       -6.866900845    17.469477377   -20.911233968
 C       -5.038081692    17.313048190   -19.750848330
 C       -7.075494900    15.899164722   -19.424214483
 H       -3.899075665    18.035145698    -5.887465378
 C       -5.441600977    19.554203298    -5.727004469
 C       -4.637527366    18.109905265    -3.846083766
 H       -5.080723437    14.933484756    -4.615593812
 C       -5.903962788    13.916010638    -6.350145782
 C       -3.682800168    15.069094195    -6.274223815
 H       -3.730699922    14.437068736     1.057384315
 C       -3.357559261    12.772663441     2.406494315
 C       -1.694679191    13.728977919     0.801018271
 H       -2.466873420    13.247472346    -2.116019418
 C       -4.183382016    12.518716224    -3.226876669
 C       -4.033241421    14.749793603    -2.090433618
 H       -0.156276125    -1.934114671    -1.517149091
 C       -2.155869557    -1.086614591    -1.574681596
 C       -0.187831429    -0.223638124    -2.856603937
 H       -1.773597496    -0.929692075     1.439445223
 C       -0.172657712    -2.380574399     1.622482860
 C       -0.294291780    -0.198301551     2.848856933
 H       -6.371932320    19.884395752   -21.521270649
 H       -6.287203503    21.593639621   -21.121718114
 H       -7.852224255    20.795312233   -21.169346145
 H       -7.053866833    21.416615119   -17.471886824
 H       -8.254802069    21.728358290   -18.737607708
 H       -6.658012340    22.459960797   -18.830845042
 H       -4.592225770    18.247924585   -20.113241102
 H       -4.619247930    16.511381513   -20.376596085
 H       -4.664265903    17.131981519   -18.733245066
 H       -8.160337500    15.774206383   -19.534488275
 H       -6.814541087    15.639936729   -18.387940177
 H       -6.611988422    15.130686535   -20.059305873
 H       -5.604626703    19.689724023    -6.805564826
 H       -4.728465822    20.334199566    -5.424925499
 H       -6.386593013    19.786767932    -5.217281267
 H       -4.158215055    17.178596968    -3.517481232
 H       -5.556620311    18.237005998    -3.255629220
 H       -3.964157278    18.925163598    -3.546051829
 H       -6.937461337    13.836148448    -5.985224710
 H       -5.414085116    12.963988978    -6.100974976
 H       -5.946840161    13.961939061    -7.447842868
 H       -3.025431516    15.801908375    -5.789485258
 H       -3.629146667    15.234047732    -7.359606855
 H       -3.227349424    14.083834375    -6.095858055
 H       -4.404197925    12.572824287     2.674082709
 H       -2.954512980    13.420954736     3.197166960
 H       -2.813346750    11.820037243     2.482479194
 H       -1.494067546    14.289443291    -0.120879981
 H       -1.085106118    12.814733838     0.779731347
 H       -1.296599973    14.340508691     1.623959015
 H       -3.887688564    11.461106557    -3.263036709
 H       -3.827789705    12.965935957    -4.167430826
 H       -5.281173612    12.558735123    -3.259950427
 H       -3.628973266    15.365696952    -1.276893183
 H       -5.127007124    14.868502452    -2.081846274
 H       -3.672247074    15.204686935    -3.025595306
 H       -2.540853357    -1.663949209    -0.724589345
 H       -2.455977122    -1.636054171    -2.478814301
 H       -2.696763233    -0.129997299    -1.604932941
 H        0.901312050    -0.133069446    -2.957061629
 H       -0.618978740     0.780658766    -2.977430816
 H       -0.527979676    -0.809775025    -3.722397713
 H       -0.452832263    -2.981859548     0.747990700
 H       -0.630202020    -2.873174457     2.492809761
 H        0.913575962    -2.470023183     1.755964446
 H       -0.649950257     0.841454765     2.883381159
 H        0.784665649    -0.184747835     3.052889800
 H       -0.763389380    -0.711932440     3.700069677

