187   

Si        0.000000000     0.000000000     0.000000000
 C        1.865177722     0.000000000     0.000000000
 C       -0.668116446     1.715898625     0.000000000
 C        0.103669446     2.779636342    -0.479383947
 C       -0.401755541     4.079284306    -0.479633211
 C       -1.690240618     4.345223058    -0.008301867
 C       -2.464486168     3.277827853     0.465375960
 C       -1.962487466     1.979053084     0.467228802
 C       -2.258871128     5.689095439     0.009740551
 C       -1.621148242     6.793144416    -0.414923667
 C       -2.184519097     8.138961010    -0.399274504
 C       -3.472410696     8.412454264     0.070650716
 C       -3.970148857     9.714791411     0.066927358
 C       -3.184380660    10.773335289    -0.401285621
 C       -1.894028831    10.503466486    -0.873574835
 C       -1.403611771     9.200102170    -0.875727725
Si       -3.831394485    12.494794022    -0.410470034
 C       -2.433842285    13.668791587    -0.521426759
 C       -2.331010289    14.684282789    -1.388025283
 C       -1.190934372    15.602613499    -1.442158417
 C       -1.198915190    16.630765898    -2.397663430
 C       -0.145534574    17.525101858    -2.490031616
 C        0.971495373    17.393931443    -1.639938707
 C        0.981508356    16.371228169    -0.680571274
 C       -0.099855709    15.502545011    -0.575869570
 N        2.013314474    18.344825277    -1.789581644
 C        2.682853381    18.331945253    -3.106198644
 C        2.939751332    18.470361929    -0.654488139
 C        3.869000167    17.364516717    -3.264374493
 C        3.498770095    15.872005250    -3.181391833
 N        2.850712927    15.308081841    -4.375657479
 C        3.464737696    15.511272297    -5.617243748
 C        4.875174395    15.528472431    -5.704094670
 C        5.499502920    15.728145143    -6.923904689
 C        4.757258069    15.871018349    -8.105343925
 C        3.363046698    15.823620620    -8.021508407
 C        2.718687250    15.640294682    -6.805457673
 C        1.383422077    15.300069388    -4.332459182
 C        5.468377153    16.079979971    -9.366911207
 C        4.866589746    16.229071340   -10.554925915
Si        5.749769027    16.490309036   -12.133616495
 C        7.407798288    15.693109458   -12.144050442
 C        7.624700231    14.522369339   -11.405516060
 C        8.874738960    13.909434827   -11.405125331
 C        9.934065793    14.440477707   -12.152889431
 C        9.712147992    15.602802683   -12.896523081
 C        8.462669566    16.221988839   -12.895008466
 C       11.225446832    13.761956355   -12.120214164
 C       12.320560138    14.167801607   -12.785015985
 C       13.611789581    13.489023361   -12.752107037
 C       13.834047982    12.326982175   -12.008791353
 C       15.085149403    11.710276862   -12.005825503
 C       16.141074512    12.239728443   -12.754227141
 C       15.920525587    13.404508664   -13.501855562
 C       14.672476922    14.021012325   -13.497784589
Si       17.797992375    11.437564350   -12.760726827
 C       17.733122314     9.722793161   -12.029462454
 C       18.418414215    11.362232781   -14.558821088
 C       19.015460910    12.490935296   -11.744768579
 C        4.704347039    15.735377229   -13.532801240
 C        5.921412943    18.360098854   -12.441376156
 C       -5.025327619    12.705731187    -1.875088477
 C       -4.777959422    12.825896688     1.205838039
 C       -0.629030660    -0.907176545    -1.550233529
 C       -0.651695243    -0.917863227     1.535316904
 H        1.118384392     2.634498181    -0.860597372
 H        0.221035613     4.889694890    -0.854312644
 H       -3.471059657     3.462529433     0.835796130
 H       -2.613629388     1.186994968     0.847131474
 H       -3.276894621     5.750579242     0.404844563
 H       -0.602884334     6.729237419    -0.810507817
 H       -4.100054695     7.605372933     0.443671036
 H       -4.984955339     9.867512435     0.444387251
 H       -1.238242788    11.292887962    -1.255458647
 H       -0.400117634     9.007255552    -1.250981034
 H       -1.645184677    13.475874177     0.225535195
 H       -3.101835018    14.907981634    -2.136903662
 H       -2.052107698    16.738498883    -3.068063951
 H       -0.179464593    18.342322945    -3.208171140
 H        1.825157026    16.252592168    -0.007057828
 H       -0.079265014    14.722818349     0.187208737
 H        3.588879926    19.348069339    -0.821045370
 H        3.579383323    17.590218517    -0.485695669
 H        2.358719081    18.665587528     0.264826404
 H        1.033659104    15.073663852    -3.307746710
 H        1.004343815    14.490420336    -4.982981696
 H        0.926113676    16.254057812    -4.641940144
 H        5.477059362    15.382526573    -4.812387750
 H        6.589261375    15.758254010    -6.965683616
 H        2.761941085    15.931161901    -8.925630882
 H        1.634365949    15.614435788    -6.784819939
 H        6.561468588    16.097533994    -9.249295301
 H        3.769755272    16.217009843   -10.643433729
 H        6.831661015    14.058284423   -10.808800270
 H        9.026406285    13.004848128   -10.819066622
 H       10.517458779    16.035317362   -13.487065451
 H        8.350227532    17.127826457   -13.496782610
 H       11.254151913    12.863495052   -11.496569624
 H       12.291578394    15.065622320   -13.409217991
 H       13.027328784    11.891595866   -11.421885035
 H       15.198148265    10.804225539   -11.404098319
 H       16.707944966    13.862926041   -14.106808739
 H       14.520725137    14.925346792   -14.083925200
 H        1.928904848    18.125730197    -3.898425232
 H        3.039849271    19.375323815    -3.284885368
 H        4.357508841    17.572194743    -4.240537173
 H        4.641221552    17.585564420    -2.503788912
 H        4.424142639    15.273961281    -2.995594479
 H        2.843918466    15.689059443    -2.299067553
 H        2.262929629    -1.029297160     0.052513576
 H        2.259569776     0.553673981     0.871638300
 H        2.276918016     0.469093560    -0.910534742
 H       18.722443164     9.233346888   -12.074394303
 H       17.021440088     9.083213245   -12.582535377
 H       17.418733299     9.740167753   -10.971269547
 H       18.480145024    12.433374225   -14.909791858
 C       19.818551380    10.739087933   -14.699859725
 C       17.442289958    10.618143230   -15.487871707
 H       19.987450082    11.917907611   -11.744338628
 C       19.282559510    13.880742887   -12.349788062
 C       18.564890809    12.667514001   -10.283074909
 H        3.707358084    16.261788461   -13.496207516
 C        5.311300280    15.956535155   -14.929151156
 C        4.457985286    14.229954283   -13.327001978
 H        6.407154009    18.468240553   -13.453797210
 C        4.569087624    19.093959725   -12.483722823
 C        6.827122291    19.041702792   -11.399944934
 H       -5.301840774    13.799702555    -1.895392399
 C       -4.368258587    12.351461052    -3.221855378
 C       -6.322339120    11.890378805    -1.729104910
 H       -5.638924276    12.096234544     1.215856945
 C       -3.919636864    12.564150680     2.456149175
 C       -5.358425048    14.248721308     1.282931859
 H       -0.163600736    -1.934271609    -1.516314206
 C       -2.158801402    -1.076322297    -1.576544779
 C       -0.184625351    -0.224664814    -2.856771933
 H       -1.776608805    -0.920122192     1.441187639
 C       -0.185129909    -2.382276898     1.618558501
 C       -0.289656170    -0.201460915     2.848962330
 H       20.588305096    11.262569284   -14.118182570
 H       20.144299386    10.782601892   -15.749426290
 H       19.846468168     9.679147994   -14.414356618
 H       16.427863833    11.042233247   -15.480996657
 H       17.355064058     9.549312912   -15.251783096
 H       17.792394182    10.677525945   -16.528294219
 H       19.692530800    13.841984320   -13.366902652
 H       20.024131548    14.418676233   -11.741153930
 H       18.386138615    14.516504361   -12.370480586
 H       18.431657045    11.717620678    -9.749584139
 H       17.627741892    13.235245456   -10.190764627
 H       19.322711045    13.231729337    -9.720692666
 H        5.431868852    17.015652025   -15.189672587
 H        4.654012972    15.524711890   -15.697697720
 H        6.288313765    15.467655075   -15.053381192
 H        3.971197562    13.993989789   -12.370719833
 H        5.380417310    13.634256057   -13.385154492
 H        3.794356748    13.845164555   -14.114121101
 H        3.891580946    18.715124068   -13.259366971
 H        4.726756475    20.158732681   -12.708098397
 H        4.034087489    19.058960043   -11.524315782
 H        7.836480101    18.610071175   -11.349751239
 H        6.405756551    19.013313851   -10.384568635
 H        6.958243882    20.103668008   -11.650171568
 H       -3.450837797    12.919313410    -3.428071104
 H       -5.059460071    12.569630513    -4.048050031
 H       -4.117951930    11.283651538    -3.304886357
 H       -6.906772705    12.156155405    -0.839078616
 H       -6.146317096    10.805602023    -1.705627034
 H       -6.979526987    12.073140872    -2.591926391
 H       -3.503220827    11.547491696     2.493793951
 H       -4.530957386    12.678083176     3.362856356
 H       -3.083841780    13.269746505     2.558053859
 H       -6.051564194    14.481738049     0.464394207
 H       -4.582819865    15.027887812     1.293978026
 H       -5.930330671    14.371920933     2.213907606
 H       -2.548494265    -1.648232313    -0.724937728
 H       -2.460333027    -1.627703085    -2.479059748
 H       -2.694439036    -0.116919575    -1.611469817
 H        0.905076324    -0.138864785    -2.955536966
 H       -0.611260293     0.781279232    -2.979659684
 H       -0.525758461    -0.810424893    -3.722482311
 H       -0.470336990    -2.980135437     0.743312046
 H       -0.644997883    -2.873478672     2.488487017
 H        0.900632543    -2.479349822     1.750613938
 H       -0.637372834     0.840827163     2.885870418
 H        0.789692985    -0.196503151     3.051397484
 H       -0.761326104    -0.713046915     3.700009441

