187   

Si        0.000000000     0.000000000     0.000000000
 C        1.865467033     0.000000000     0.000000000
 C       -0.676228033     1.712177570     0.000000000
 C        0.148386460     2.813803935    -0.248986278
 C       -0.374839474     4.106698594    -0.246496909
 C       -1.732741696     4.327709888    -0.002428338
 C       -2.558507194     3.222540212     0.243792129
 C       -2.038584899     1.931144833     0.245551823
 C       -2.322683065     5.662364149     0.009709905
 C       -1.641605946     6.800326587    -0.207375581
 C       -2.227615775     8.136455726    -0.196104306
 C       -3.584918473     8.363200448     0.047414475
 C       -4.102218564     9.658343408     0.048595184
 C       -3.272821563    10.754923339    -0.207039114
 C       -1.911560738    10.530752361    -0.452566649
 C       -1.396399687     9.237555228    -0.441580032
Si       -3.927751036    12.473321885    -0.211835897
 C       -3.039585960    13.536259332    -1.406796852
 C       -2.484577671    13.085802511    -2.539860403
 C       -1.772589130    13.930932888    -3.500201970
 C       -1.235189944    13.335375236    -4.652560592
 C       -0.552973236    14.088166612    -5.592501209
 C       -0.416342290    15.482492890    -5.422289497
 C       -0.949518814    16.080578127    -4.269713991
 C       -1.600180655    15.303860834    -3.316403317
 N        0.289523458    16.204629561    -6.411171487
 C       -0.175328081    16.000619307    -7.802539638
 C        0.608414513    17.607534957    -6.101080724
 C       -1.690838474    15.816605937    -7.984318408
 C       -2.504160062    17.029988766    -7.499764221
 N       -3.929192584    16.724892009    -7.284341414
 C       -4.688838563    16.341560104    -8.402184700
 C       -4.335652844    16.784778808    -9.694994215
 C       -5.085966950    16.405804289   -10.796700053
 C       -6.239240499    15.621799640   -10.656141849
 C       -6.607451018    15.212162440    -9.371185941
 C       -5.857592972    15.567220489    -8.258481759
 C       -4.174702404    15.988231596    -6.031613999
 C       -6.995276019    15.249453594   -11.852878628
 C       -8.108804867    14.505377598   -11.834662810
Si       -9.093209623    14.009408380   -13.291390767
 C      -10.868103968    14.395941768   -13.000242622
 C      -11.227993810    15.399315377   -12.091885811
 C      -12.569623925    15.697089628   -11.866670443
 C      -13.581375850    15.010051935   -12.550138341
 C      -13.217881930    14.013994941   -13.461060136
 C      -11.875955172    13.709624306   -13.685644175
 C      -14.972380118    15.358358696   -12.279591130
 C      -16.034661640    14.775746354   -12.860812971
 C      -17.425322600    15.124686472   -12.589664727
 C      -17.789091190    16.120209976   -11.679248644
 C      -19.131625087    16.421616634   -11.450402359
 C      -20.141377136    15.727283730   -12.123695273
 C      -19.779221997    14.727154722   -13.036381551
 C      -18.438420739    14.432291491   -13.266651749
Si      -21.918104409    16.111879911   -11.833953328
 C      -22.147713973    17.224930023   -10.354581719
 C      -22.640816479    16.980208077   -13.366052623
 C      -22.845499276    14.470115880   -11.573308281
 C       -8.513791329    14.910929633   -14.862204876
 C       -8.882020853    12.135806936   -13.551532461
 C       -5.776238359    12.473870695    -0.662235452
 C       -3.719168265    13.214719079     1.526819584
 C       -0.608517129    -0.925787029    -1.547745927
 C       -0.659336735    -0.899982258     1.542231472
 H        1.218146963     2.704275681    -0.447627534
 H        0.289537581     4.947176205    -0.439124471
 H       -3.619071462     3.372482476     0.436827326
 H       -2.730722060     1.108527350     0.446580467
 H       -3.396952363     5.686462146     0.214210354
 H       -0.567024023     6.774647831    -0.411753607
 H       -4.252138010     7.525563373     0.241527359
 H       -5.170424310     9.772880734     0.251774436
 H       -1.215577048    11.351969658    -0.655392326
 H       -0.335522272     9.082991582    -0.630079910
 H       -3.003127956    14.601882490    -1.135127872
 H       -2.516162732    12.027426383    -2.836674552
 H       -1.346289978    12.260722986    -4.806008138
 H       -0.111926271    13.607563645    -6.462764278
 H       -0.859471606    17.149544211    -4.105274145
 H       -1.992044225    15.787056746    -2.420332113
 H        1.331359028    17.982635681    -6.847156700
 H        1.113442947    17.659479502    -5.119421420
 H       -0.261543899    18.282272104    -6.088144553
 H       -3.440684632    16.280175849    -5.259298021
 H       -4.114683591    14.893158210    -6.147243166
 H       -5.174780717    16.257586050    -5.646777758
 H       -3.467964498    17.420847669    -9.839784630
 H       -4.778193347    16.738834466   -11.788320903
 H       -7.502409550    14.603095863    -9.231659463
 H       -6.182849865    15.231681028    -7.278598767
 H       -6.559972023    15.645448141   -12.779561583
 H       -8.516401124    14.117536659   -10.885879659
 H      -10.479420129    15.971304514   -11.533242047
 H      -12.831832363    16.475600432   -11.152607637
 H      -13.984471550    13.465602573   -14.004916503
 H      -11.652609913    12.920273784   -14.408385282
 H      -15.108864399    16.156720280   -11.544028036
 H      -15.898500411    13.977637680   -13.596315785
 H      -17.022497345    16.672933620   -11.139109027
 H      -19.353924989    17.211727019   -10.727807686
 H      -20.525201613    14.150628813   -13.590652578
 H      -18.176946032    13.653169925   -13.980091610
 H        0.181518854    16.842401043    -8.434699585
 H        0.349429420    15.088558950    -8.178766282
 H       -1.912774390    15.615465613    -9.050692652
 H       -2.029587974    14.906500135    -7.448000386
 H       -2.094632147    17.416399565    -6.537931331
 H       -2.422919031    17.873188404    -8.221035110
 H        2.263300068    -1.029372018     0.050432449
 H        2.262085470     0.551490736     0.871797267
 H        2.274581543     0.470017887    -0.911472551
 H      -23.218589125    17.418301878   -10.164543436
 H      -21.653649736    18.201962576   -10.497469476
 H      -21.727192128    16.763771544    -9.442519712
 H      -23.703127706    17.244620050   -13.092344892
 C      -21.897301381    18.284016426   -13.709794886
 C      -22.680771760    16.090765087   -14.621498106
 H      -22.692364882    13.875287080   -12.520505044
 C      -22.271830485    13.648595467   -10.404575546
 C      -24.360426741    14.646130545   -11.367015241
 H       -7.404345881    14.719608924   -14.938622702
 C       -9.177299838    14.383195726   -16.146882288
 C       -8.734803895    16.432555766   -14.781465993
 H       -9.480781127    11.879402019   -14.472718538
 C       -7.420675500    11.725192013   -13.804158084
 C       -9.439567421    11.311073705   -12.377723800
 H       -6.291755849    11.854462088     0.127317988
 C       -6.403406511    13.879375273    -0.647115091
 C       -6.042629767    11.824230923    -2.031987149
 H       -4.140463166    14.259894183     1.474039689
 C       -4.492436253    12.441319309     2.608905445
 C       -2.240739146    13.315475224     1.943337174
 H       -0.105296997    -1.935344921    -1.515296023
 C       -2.130431900    -1.153792106    -1.574535140
 C       -0.192150250    -0.226734640    -2.854974687
 H       -1.784075253    -0.895356510     1.444971579
 C       -0.200923416    -2.365754203     1.641315503
 C       -0.297496058    -0.171433199     2.849236645
 H      -21.896114108    19.014906121   -12.890931352
 H      -22.381312366    18.779931672   -14.563354435
 H      -20.851888317    18.114198964   -14.005421054
 H      -23.257000935    15.167144774   -14.484100562
 H      -21.679229415    15.814448189   -14.980061041
 H      -23.162613047    16.631705849   -15.449065466
 H      -21.198744645    13.433942375   -10.510916833
 H      -22.775287152    12.673081732   -10.346412463
 H      -22.417621377    14.130378349    -9.428714074
 H      -24.855663548    15.161185494   -12.200270774
 H      -24.607105215    15.188279935   -10.444541973
 H      -24.844341924    13.662114347   -11.283211779
 H       -8.977747577    13.320754478   -16.335507585
 H       -8.789663653    14.927004593   -17.020599680
 H      -10.266892066    14.528112344   -16.156795207
 H       -8.257371829    16.900868658   -13.909798481
 H       -9.799493555    16.706909217   -14.758634142
 H       -8.309640647    16.923496176   -15.667972194
 H       -6.979764270    12.206501896   -14.686502516
 H       -7.359018778    10.642059857   -13.981523443
 H       -6.763412154    11.934331002   -12.947771757
 H      -10.496743100    11.520272696   -12.161467305
 H       -8.875019631    11.456716472   -11.446404088
 H       -9.380398370    10.238154863   -12.609223770
 H       -6.320225592    14.383922823     0.323909719
 H       -7.479225774    13.812287745    -0.865076580
 H       -5.977089772    14.545677287    -1.410098632
 H       -5.677768746    10.790049807    -2.103334628
 H       -5.600195494    12.388222508    -2.866069746
 H       -7.123598523    11.782556982    -2.226419885
 H       -5.575076496    12.408978825     2.432094209
 H       -4.355990839    12.925157292     3.587089048
 H       -4.141717959    11.406092003     2.729080158
 H       -1.628965591    13.902962660     1.245302888
 H       -1.761697505    12.332215367     2.058030583
 H       -2.157253896    13.812710446     2.920214335
 H       -2.502146690    -1.719846627    -0.711134336
 H       -2.406341877    -1.737680527    -2.464843668
 H       -2.701232652    -0.216580746    -1.635790250
 H        0.893246233    -0.097895785    -2.954925693
 H       -0.657088401     0.762178732    -2.977058482
 H       -0.511076100    -0.825222009    -3.720354762
 H       -0.486161185    -2.970574322     0.770895737
 H       -0.666162383    -2.846000028     2.514504979
 H        0.883910928    -2.466894347     1.777937903
 H       -0.645147784     0.871302455     2.875177172
 H        0.781413886    -0.165464441     3.053235322
 H       -0.771284040    -0.673967210     3.704543417

