187   

Si        0.000000000     0.000000000     0.000000000
 C        1.865389954     0.000000000     0.000000000
 C       -0.676656878     1.712026304     0.000000000
 C        0.139570792     2.810681143    -0.286877133
 C       -0.383967757     4.103485914    -0.283992500
 C       -1.734076601     4.327087728    -0.001989882
 C       -2.551602276     3.224744668     0.281599545
 C       -2.031357208     1.933541638     0.282782746
 C       -2.324994289     5.661171106     0.012309690
 C       -1.653456380     6.797985438    -0.238127922
 C       -2.244149124     8.132118893    -0.223883044
 C       -1.425820950     9.234198991    -0.504061212
 C       -1.945067108    10.526541029    -0.502095054
 C       -3.295619802    10.748240110    -0.207222201
 C       -4.114889428     9.648617554     0.073287440
 C       -3.594654707     8.355470091     0.059165558
Si       -4.004874812    12.445497032    -0.198261361
 C       -5.370923947    12.613914962     1.005361388
 C       -5.463110676    11.913391463     2.143901361
 C       -6.556798316    12.048712650     3.106830770
 C       -6.541328814    11.257844174     4.264984568
 C       -7.551584343    11.346667949     5.208183876
 C       -8.601115591    12.277944972     5.047168425
 C       -8.616682628    13.072684754     3.884888475
 C       -7.620170653    12.936627237     2.926524898
 N       -9.619853181    12.358677549     6.010303406
 C       -9.270213675    12.037065040     7.405223880
 C      -10.589950467    13.454751245     5.872093150
 C       -8.126433519    12.874635168     8.002512122
 C       -8.573907411    14.241388642     8.548731403
 N       -9.153216909    14.217187765     9.903836292
 C       -8.376973017    13.656858735    10.931992450
 C       -6.969614079    13.766583351    10.887703872
 C       -6.191448633    13.219192261    11.894118633
 C       -6.775484443    12.591207097    13.003949570
 C       -8.168913023    12.510958860    13.061513399
 C       -8.964425364    13.036372153    12.050911854
 C      -10.599065564    13.952115590     9.934317379
 C       -5.904160791    12.030365092    14.037338795
 C       -6.344575768    11.408923747    15.139773636
Si       -5.249978749    10.710290840    16.427330794
 C       -3.644165942    10.149883884    15.726117128
 C       -3.604430041     9.620079985    14.429288578
 C       -2.400303138     9.190039044    13.879134819
 C       -1.209106575     9.265300699    14.613452662
 C       -1.253163868     9.785946104    15.909564223
 C       -2.457331469    10.222001416    16.461972790
 C        0.026823070     8.801659884    13.991971020
 C        1.235217422     8.821331945    14.579612755
 C        2.469092434     8.356548702    13.954329442
 C        2.507338839     7.836805099    12.657910055
 C        3.709116633     7.403578651    12.098085599
 C        4.900226737     7.475529117    12.827212257
 C        4.864636155     7.996068828    14.127994992
 C        3.664464171     8.432818805    14.681878460
Si        6.493843398     6.907579195    12.101580970
 C        6.222807368     5.907089967    10.550746416
 C        7.569222771     8.419033588    11.674352057
 C        7.406992348     5.864295290    13.405948502
 C       -4.959756179    12.027569974    17.769017115
 C       -6.126998223     9.217883566    17.216037966
 C       -2.654950454    13.717995164     0.224755257
 C       -4.685394481    12.830171780    -1.932680524
 C       -0.613182633    -0.922305304    -1.548019905
 C       -0.658099424    -0.902781799     1.541321715
 H        1.202882802     2.698835162    -0.516165372
 H        0.273572714     4.941810610    -0.506722575
 H       -3.606130220     3.376774382     0.504172800
 H       -2.717011665     1.113249623     0.513268609
 H       -3.392937808     5.685988870     0.248528336
 H       -0.585756418     6.772812278    -0.474742050
 H       -0.371979545     9.081973793    -0.728505021
 H       -1.259478784    11.346008421    -0.733977046
 H       -5.179129620     9.762535726     0.307158012
 H       -4.253297203     7.516383478     0.275978517
 H       -6.129338546    13.363442244     0.733613170
 H       -4.714193964    11.166116296     2.443617389
 H       -5.726276690    10.549516846     4.422988415
 H       -7.527287637    10.692728389     6.075366960
 H       -9.407937031    13.794717467     3.714964288
 H       -7.666988386    13.551740918     2.026588853
 H      -11.329384964    13.413830827     6.688683393
 H      -11.152057072    13.320293011     4.928452212
 H      -10.127261374    14.455460335     5.866510463
 H      -11.092467037    14.433718384     9.074204535
 H      -11.028838789    14.411847213    10.844631298
 H      -10.852285264    12.879173459     9.929328732
 H       -6.486024833    14.278208310    10.060198649
 H       -5.104703824    13.293748299    11.827173895
 H       -8.649933167    12.028245025    13.913533784
 H      -10.042032198    12.949572505    12.137434464
 H       -4.834581996    12.162175083    13.817830021
 H       -7.420300128    11.299092467    15.342535082
 H       -4.504409770     9.532486171    13.811026945
 H       -2.387604473     8.788389730    12.867632588
 H       -0.342493216     9.854856054    16.501454297
 H       -2.428694237    10.619465403    17.480095913
 H       -0.089723472     8.419105268    12.973503484
 H        1.353427730     9.203471251    15.597638755
 H        1.593579973     7.765947478    12.070619797
 H        3.675756248     7.007515950    11.079303036
 H        5.764048088     8.075953924    14.745089533
 H        3.657131916     8.835693747    15.692860096
 H      -10.185566603    12.124912992     8.030208176
 H       -8.997933588    10.954151775     7.439036905
 H       -7.632163986    12.293548927     8.808194618
 H       -7.337492033    13.029197105     7.237687924
 H       -7.700287816    14.937390932     8.573819992
 H       -9.303895676    14.716473068     7.857800095
 H        2.263222999    -1.029534698     0.046225893
 H        2.261332247     0.548081142     0.874258383
 H        2.274888519     0.473961421    -0.909185311
 H        7.180063832     5.532944864    10.145878354
 H        5.737257626     6.503130228     9.758263680
 H        5.582613433     5.029109796    10.752774269
 H        8.497901190     8.003977257    11.186074761
 C        6.884294987     9.364800625    10.670784996
 C        8.002484156     9.236020861    12.904755173
 H        7.577128044     6.549758523    14.286634774
 C        6.569871199     4.668619548    13.895207476
 C        8.780250142     5.355095250    12.933234752
 H       -4.324166960    11.534603480    18.560105009
 C       -4.193944751    13.249391953    17.230551631
 C       -6.260166269    12.508693635    18.437243918
 H       -7.094883494     9.612862339    17.640102728
 C       -6.467125403     8.128913384    16.182642054
 C       -5.324728318     8.583192422    18.365294053
 H       -1.869165558    13.620464043    -0.578856161
 C       -3.165968017    15.169789054     0.214342083
 C       -1.989731028    13.432426217     1.583100919
 H       -5.091622607    13.881340876    -1.882964499
 C       -3.606849811    12.785354764    -3.029005346
 C       -5.838582354    11.889867136    -2.326677705
 H       -0.119063526    -1.936156794    -1.514552377
 C       -2.137184142    -1.136019708    -1.575450882
 C       -0.189428679    -0.227552273    -2.855151071
 H       -1.782670954    -0.904075039     1.442369979
 C       -0.192736023    -2.366403352     1.641035011
 C       -0.301795969    -0.172694364     2.848948055
 H        6.615941036     8.877385588     9.724689340
 H        7.561166292    10.190790850    10.409155009
 H        5.973743469     9.829951527    11.075332066
 H        8.573803553     8.651787686    13.637104450
 H        7.154746242     9.699376034    13.428997281
 H        8.658116404    10.062673376    12.594156456
 H        5.590861948     4.961487539    14.301035401
 H        7.095490691     4.147448702    14.707994557
 H        6.392209461     3.919692659    13.112116516
 H        9.462947108     6.160421616    12.632808363
 H        8.709774196     4.646961374    12.096997086
 H        9.281943204     4.816022193    13.750089392
 H       -3.221916704    12.995221349    16.785562781
 H       -3.984064616    13.954135852    18.047309406
 H       -4.764005744    13.811827041    16.476602027
 H       -6.828646654    11.701865449    18.916764421
 H       -6.933566412    13.024918897    17.738629964
 H       -6.028235775    13.233540287    19.230998793
 H       -7.090244827     8.492524018    15.354286319
 H       -7.033483095     7.317848519    16.661791519
 H       -5.573109882     7.661488719    15.745103517
 H       -5.121214832     9.277534287    19.190452940
 H       -4.363157561     8.164050953    18.035655589
 H       -5.889331373     7.746166215    18.800941486
 H       -3.585259644    15.477437435    -0.751962725
 H       -2.336467019    15.861088911     0.422311359
 H       -3.924765795    15.361089213     0.986033890
 H       -1.546137149    12.429246479     1.650207438
 H       -2.683245640    13.543074437     2.429417481
 H       -1.170957597    14.143809905     1.760225181
 H       -2.790474994    13.500651604    -2.867149947
 H       -4.049358534    13.040415155    -4.002846681
 H       -3.159574945    11.788048929    -3.148808948
 H       -6.679204748    11.909822459    -1.619651946
 H       -5.518997389    10.842981882    -2.432336348
 H       -6.249300718    12.184808900    -3.302626185
 H       -2.513680986    -1.703082806    -0.714785190
 H       -2.418981123    -1.712605753    -2.468628142
 H       -2.699415635    -0.193182408    -1.631266139
 H        0.897072971    -0.107441151    -2.953683988
 H       -0.646515738     0.764873946    -2.978626523
 H       -0.511857660    -0.824135552    -3.720545764
 H       -0.471484491    -2.971984424     0.769054708
 H       -0.659091628    -2.849661546     2.511966831
 H        0.892020481    -2.462215742     1.781908062
 H       -0.654406347     0.868396374     2.874395553
 H        0.776755110    -0.161476436     3.054571061
 H       -0.774391292    -0.677610535     3.703508183

