187   

Si        0.000000000     0.000000000     0.000000000
 C        1.865135398     0.000000000     0.000000000
 C       -0.681197120     1.710058909     0.000000000
 C        0.114271595     2.804220004    -0.354576186
 C       -0.412924197     4.095592366    -0.350895650
 C       -1.746051732     4.322018601     0.000941282
 C       -2.543194632     3.223990588     0.351454919
 C       -2.019728192     1.934156396     0.349743665
 C       -2.341389693     5.653979234     0.019335609
 C       -1.692036354     6.788489160    -0.292339888
 C       -2.290993112     8.119038782    -0.272762187
 C       -3.625272485     8.338538480     0.080181464
 C       -4.158287877     9.627152962     0.085820140
 C       -3.370121362    10.723703930    -0.276956204
 C       -2.032554470    10.506715657    -0.633935091
 C       -1.500174558     9.220404793    -0.626640983
Si       -4.047578217    12.431928208    -0.278102479
 C       -3.321414167    13.462681576    -1.601228873
 C       -2.889395091    12.975957911    -2.772269274
 C       -2.306336933    13.787697387    -3.840188492
 C       -1.893616330    13.151549623    -5.018652720
 C       -1.334589896    13.868275672    -6.064038131
 C       -1.222813501    15.273906014    -5.988579639
 C       -1.638416861    15.912737893    -4.803525258
 C       -2.143115805    15.172413605    -3.743274368
 N       -0.654851010    15.995521184    -7.052155710
 C       -0.774871216    15.421304443    -8.406221191
 C       -0.809650023    17.459074066    -7.014771089
 C       -2.200663237    15.036916710    -8.843288625
 C       -3.007708874    16.218143608    -9.416174654
 N       -4.409294268    16.295850479    -8.942891946
 C       -4.487584663    16.697972012    -7.570043205
 C       -4.322494468    18.071147469    -7.320213304
 C       -4.383285306    18.548424586    -6.020558648
 C       -4.608254460    17.676631022    -4.944378939
 C       -4.788109472    16.315769938    -5.203950628
 C       -4.745950960    15.826568464    -6.506467853
 C       -5.194956202    15.094611239    -9.276316212
 C       -4.661569231    18.243312070    -3.594960781
 C       -4.868262456    17.532622814    -2.478437236
Si       -4.925320855    18.294345346    -0.814550740
 C       -3.859947012    19.790146293    -0.724338332
 C       -2.660617152    19.827956916    -1.448997041
 C       -1.839281317    20.950245969    -1.394948075
 C       -2.187075926    22.056014929    -0.607378541
 C       -3.379491374    22.011733124     0.119946737
 C       -4.207442943    20.890651265     0.064117501
 C       -1.293464615    23.209326348    -0.583296488
 C       -1.511094087    24.331288347     0.123636955
 C       -0.617632911    25.484747948     0.147888711
 C        0.574827413    25.530364545    -0.578786563
 C        1.399483406    26.654166438    -0.526337536
 C        1.050761483    27.756307641     0.260532337
 C       -0.144845510    27.712837965     0.990602755
 C       -0.968398418    26.592166500     0.931958606
Si        2.128603743    29.246737525     0.340162074
 C        3.819596716    28.908974538    -0.371017834
 C        1.321526292    30.662603935    -0.643311963
 C        2.275499279    29.782406877     2.160895287
 C       -6.731565541    18.699550908    -0.390626758
 C       -4.255322821    17.023560896     0.433527364
 C       -5.935893688    12.412019186    -0.512909685
 C       -3.649207999    13.243773954     1.396131633
 C       -0.617834461    -0.918619174    -1.548434313
 C       -0.652535686    -0.910366028     1.539600660
 H        1.164074118     2.689734470    -0.638323855
 H        0.228232270     4.930646951    -0.627346665
 H       -3.584350257     3.378277042     0.628472934
 H       -2.689796080     1.117334970     0.632283377
 H       -3.394493869     5.679376962     0.314754432
 H       -0.639017772     6.764599038    -0.587620470
 H       -4.261730927     7.500650913     0.358243259
 H       -5.206314351     9.736043744     0.377423288
 H       -1.370083670    11.328889118    -0.926319793
 H       -0.458024067     9.071301283    -0.903213064
 H       -3.275904077    14.539299825    -1.375102098
 H       -2.933160095    11.905842476    -3.021332424
 H       -1.998873742    12.069897169    -5.113796827
 H       -0.981466657    13.336073087    -6.941752448
 H       -1.572545565    16.992157986    -4.701380772
 H       -2.440653623    15.694849774    -2.831500453
 H       -0.360221643    17.914794190    -7.911195197
 H       -0.258254605    17.856728148    -6.142549258
 H       -1.863039860    17.785663154    -6.946298204
 H       -5.233132294    14.998506306   -10.375253831
 H       -6.231815043    15.232234701    -8.921973832
 H       -4.804721305    14.153938014    -8.859424205
 H       -4.164070648    18.750056026    -8.156117142
 H       -4.260455073    19.615913536    -5.836104212
 H       -4.960555417    15.618009769    -4.382212676
 H       -4.889438295    14.763970165    -6.683145629
 H       -4.503705341    19.332093624    -3.583667705
 H       -5.035146988    16.445102798    -2.509468552
 H       -2.335340098    18.990931737    -2.077061733
 H       -0.914814477    20.965218191    -1.969214671
 H       -3.672851617    22.856954421     0.739896656
 H       -5.127193380    20.915106065     0.654830284
 H       -0.396006988    23.105415461    -1.200047293
 H       -2.408609100    24.434969267     0.740586154
 H        0.871252857    24.684020674    -1.195585168
 H        2.319325088    26.631377212    -1.117201758
 H       -0.468268823    28.544414535     1.623174116
 H       -1.893802408    26.577650913     1.504679993
 H       -0.325045445    16.129915328    -9.136013534
 H       -0.121469286    14.515240933    -8.432761710
 H       -2.146864299    14.223824394    -9.589573821
 H       -2.744259195    14.599894126    -7.978790093
 H       -2.515135811    17.185374354    -9.172398641
 H       -3.040393819    16.160587266   -10.526700143
 H        2.262824067    -1.029476334     0.048478006
 H        2.260576202     0.550175188     0.873314702
 H        2.275570494     0.472348169    -0.909565254
 H        4.474969607    29.793308009    -0.276668551
 H        3.768533976    28.646069916    -1.442061152
 H        4.312182426    28.073276502     0.158656655
 H        2.053279271    31.520409775    -0.598909842
 C        1.099419514    30.300762117    -2.123336964
 C       -0.013703067    31.144144532    -0.048081036
 H        1.224629300    30.017797348     2.499612614
 C        2.820390004    28.660202734     3.062869214
 C        3.129421054    31.046938862     2.361915298
 H       -6.722787134    19.116955404     0.657532188
 C       -7.325836286    19.768050367    -1.325443165
 C       -7.647168238    17.462052657    -0.401764445
 H       -4.788217269    16.056295713     0.200084986
 C       -2.741407362    16.799170208     0.272535959
 C       -4.548779518    17.385851291     1.899191461
 H       -6.349518882    11.791606109     0.333171808
 C       -6.574986740    13.810326952    -0.432872066
 C       -6.349988770    11.751114911    -1.839923234
 H       -4.023189706    14.307268209     1.325959444
 C       -4.357824319    12.568476422     2.582359495
 C       -2.136137934    13.285554117     1.675174286
 H       -0.130506910    -1.935676224    -1.515687430
 C       -2.143439927    -1.121416869    -1.573444423
 C       -0.190684904    -0.226266755    -2.855664894
 H       -1.777011329    -0.919601842     1.440755685
 C       -0.177365882    -2.371084103     1.636258059
 C       -0.300913012    -0.180766415     2.848764243
 H        2.022443465    30.023379152    -2.648406736
 H        0.686320810    31.164133605    -2.664443442
 H        0.380012297    29.480381747    -2.258921074
 H        0.074320061    31.505577041     0.984284928
 H       -0.794452704    30.370834206    -0.070242489
 H       -0.403649984    31.988193674    -0.635613353
 H        2.224744414    27.737308086     3.015055273
 H        2.805586335    28.980763969     4.114359685
 H        3.861155905    28.393802792     2.835766790
 H        2.759844616    31.915065321     1.801019172
 H        4.183716139    30.898976480     2.092982747
 H        3.121498827    31.340297347     3.421858702
 H       -6.759809142    20.709734741    -1.330599548
 H       -8.345756854    20.024788989    -1.006181934
 H       -7.406634682    19.426773382    -2.367928976
 H       -7.325081008    16.673739314     0.291204386
 H       -7.744860086    17.013287891    -1.400565704
 H       -8.663952580    17.744618389    -0.093473838
 H       -2.443615563    16.500145431    -0.741699253
 H       -2.404216567    15.995207569     0.944237159
 H       -2.148720357    17.685962915     0.540300887
 H       -5.619580640    17.473899682     2.121864009
 H       -4.064143541    18.319839840     2.215941164
 H       -4.160847122    16.601012848     2.565461680
 H       -6.389763275    14.318127717     0.522542275
 H       -7.667280933    13.729365941    -0.529072020
 H       -6.244761913    14.476957226    -1.242654850
 H       -5.984012080    10.720842460    -1.947580600
 H       -6.011487453    12.314784668    -2.721939915
 H       -7.445131891    11.694937732    -1.909534263
 H       -5.452287044    12.589001945     2.505057248
 H       -4.106096079    13.089644739     3.517442607
 H       -4.052253644    11.522182266     2.725588272
 H       -1.557764632    13.782772287     0.883982757
 H       -1.702621504    12.285267450     1.820413952
 H       -1.937941942    13.842064599     2.602079917
 H       -2.520808177    -1.694862666    -0.717363290
 H       -2.432307771    -1.686618824    -2.471555395
 H       -2.699513456    -0.174206921    -1.616968776
 H        0.896563478    -0.114098186    -2.955277433
 H       -0.640942547     0.769390284    -2.978079976
 H       -0.518381196    -0.820098975    -3.720959841
 H       -0.453308622    -2.976947754     0.763591827
 H       -0.639292242    -2.858922602     2.506961839
 H        0.908208540    -2.459972851     1.775534796
 H       -0.659517118     0.858228259     2.876335379
 H        0.777626436    -0.163452609     3.054364371
 H       -0.770301376    -0.690283936     3.702306533

