187   

Si        0.000000000     0.000000000     0.000000000
 C        1.864617616     0.000000000     0.000000000
 C       -0.682641370     1.708576568     0.000000000
 C        0.146764689     2.832291779     0.067775043
 C       -0.396809740     4.117593281     0.066182022
 C       -1.776715315     4.307158824    -0.036375972
 C       -2.604992229     3.179485599    -0.107104778
 C       -2.068896689     1.896351728    -0.076193917
 C       -2.401209259     5.624764666    -0.043303949
 C       -1.742902777     6.792653067     0.045958697
 C       -2.389631116     8.100490465     0.036967165
 C       -1.596610552     9.250644174     0.136266832
 C       -2.175019042    10.518467014     0.131371183
 C       -3.557258322    10.666208037    -0.026825181
 C       -4.350315997     9.518305380    -0.149986923
 C       -3.771515996     8.251527319    -0.115410990
Si       -4.373477099    12.312006510    -0.041017031
 C       -5.648602182    12.458035402    -1.339994610
 C       -5.657823565    11.828533345    -2.522441122
 C       -6.724073070    12.001208776    -3.514563646
 C       -6.659937692    11.306468295    -4.728018308
 C       -7.657248308    11.450847875    -5.687864960
 C       -8.770845153    12.258130603    -5.427042480
 C       -8.847099266    12.949832287    -4.204858605
 C       -7.827882655    12.829354179    -3.273384334
 N       -9.852316284    12.480466576    -6.332225036
 C       -9.564528495    12.326754909    -7.765332360
 C      -11.104192026    11.832234892    -5.898470622
 C       -9.707788610    10.911219211    -8.348697001
 C       -9.371163503    10.885417617    -9.851343172
 N       -7.983342689    11.247054640   -10.203618294
 C       -6.979045991    10.677796598    -9.390074287
 C       -7.026326080     9.287499731    -9.155097262
 C       -6.064906819     8.682087208    -8.364627731
 C       -5.013372132     9.426087322    -7.807120612
 C       -4.957715971    10.798095509    -8.059794092
 C       -5.920033226    11.422567012    -8.846404039
 C       -7.810837508    12.657591814   -10.583040309
 C       -4.029635601     8.726555287    -6.980818473
 C       -2.978703883     9.309608711    -6.388579241
Si       -1.788333180     8.366773005    -5.367669051
 C       -2.639081530     6.942503737    -4.573748578
 C       -3.886136115     7.132682695    -3.962651382
 C       -4.544168906     6.065476033    -3.356926868
 C       -3.976303295     4.785041395    -3.353600614
 C       -2.730431211     4.600821888    -3.959226516
 C       -2.063503004     5.669137097    -4.555896489
 C       -4.691853509     3.688042421    -2.710102559
 C       -4.223747016     2.429969390    -2.645415258
 C       -4.902431379     1.305195391    -2.014350407
 C       -6.147067052     1.418568017    -1.391955377
 C       -6.750485119     0.306514451    -0.803340470
 C       -6.111752465    -0.937101730    -0.809935653
 C       -4.863091976    -1.053083168    -1.436474904
 C       -4.273764375     0.052586795    -2.039753373
Si       -6.886349422    -2.418204014    -0.040696821
 C       -8.567530008    -2.029162021     0.667519017
 C       -7.092325468    -3.809098101    -1.323104546
 C       -5.704458923    -3.006852286     1.331235621
 C       -0.356161169     7.778564842    -6.472385901
 C       -1.083015055     9.495168313    -4.014555726
 C       -5.224423892    12.566211291     1.644553522
 C       -3.105718535    13.712855787    -0.276373545
 C       -0.684889938    -0.880800306    -1.542948063
 C       -0.606873735    -0.949501804     1.535151476
 H        1.234105291     2.745918878     0.131227252
 H        0.268290785     4.975945414     0.133849261
 H       -3.685649304     3.304024806    -0.178060058
 H       -2.771705758     1.056910288    -0.124598958
 H       -3.492356961     5.608556155    -0.138666923
 H       -0.654036720     6.815527410     0.133262749
 H       -0.517437439     9.155795282     0.236879531
 H       -1.508444542    11.377361356     0.242520088
 H       -5.435610908     9.574329003    -0.286387703
 H       -4.408039649     7.373664800    -0.214476815
 H       -6.451839563    13.165634450    -1.072837292
 H       -4.876554560    11.121059951    -2.832081629
 H       -5.813252903    10.649101638    -4.939141006
 H       -7.563541294    10.920078392    -6.634297980
 H       -9.700611983    13.595233812    -4.007957824
 H       -7.897414584    13.388088067    -2.339992479
 H      -11.922044056    12.133132251    -6.573534960
 H      -11.364177996    12.185636026    -4.885382120
 H      -11.047474341    10.732515056    -5.872695861
 H       -8.564143523    12.923016343   -11.344699909
 H       -6.820442965    12.785183084   -11.057685114
 H       -7.895305949    13.369996082    -9.746994180
 H       -7.817460283     8.691088312    -9.601262335
 H       -6.122829252     7.608268200    -8.181277773
 H       -4.151513434    11.398153684    -7.635034663
 H       -5.850775361    12.493140130    -9.011178529
 H       -4.246632700     7.652657529    -6.876662543
 H       -2.768849974    10.381868417    -6.503978767
 H       -4.378181235     8.111240757    -3.941573309
 H       -5.510392690     6.230838212    -2.884956182
 H       -2.260317069     3.618814594    -3.959085921
 H       -1.085023670     5.464465838    -4.998700074
 H       -5.658531737     3.953510735    -2.276528753
 H       -3.250470404     2.180839793    -3.083977212
 H       -6.659241411     2.377960815    -1.364571869
 H       -7.729109874     0.452160479    -0.338683156
 H       -4.317040677    -2.000359840    -1.472294792
 H       -3.312149641    -0.056506573    -2.542209085
 H      -10.260376829    13.019716989    -8.296199136
 H       -8.534635863    12.712607559    -7.950430834
 H       -9.060228580    10.201839904    -7.797233169
 H      -10.739239354    10.539638749    -8.205446931
 H       -9.547017163     9.856298269   -10.247963827
 H      -10.069406892    11.548533576   -10.407305030
 H        2.264672947    -1.029247710    -0.006240281
 H        2.270186506     0.508840806     0.892253758
 H        2.263340430     0.515152472    -0.892258117
 H       -9.017508990    -2.921748211     1.137681759
 H       -9.264961926    -1.676741226    -0.112774701
 H       -8.503470878    -1.244613483     1.442825731
 H       -7.687329321    -4.611077295    -0.796178168
 C       -7.894282551    -3.353573706    -2.556188841
 C       -5.772902628    -4.440960930    -1.801256295
 H       -4.712355973    -3.191262128     0.824145255
 C       -5.487191116    -1.937401283     2.417219757
 C       -6.145442729    -4.319286131     2.001864665
 H        0.321610589     7.169874958    -5.806655355
 C       -0.833895315     6.878437220    -7.626394245
 C        0.473878108     8.934251952    -7.060609986
 H       -0.450858872    10.265753862    -4.542499715
 C       -2.185001464    10.231910470    -3.237585599
 C       -0.187812894     8.738876671    -3.017264132
 H       -5.687279348    13.594180685     1.606262423
 C       -6.349740291    11.547815285     1.899475610
 C       -4.239570486    12.528161849     2.825896353
 H       -2.335823301    13.575326376     0.536906467
 C       -2.386687913    13.646704140    -1.635119510
 C       -3.720709081    15.115164372    -0.113641047
 H       -1.802601445    -0.937748945    -1.382700518
 C       -0.432550018    -0.092042867    -2.840246062
 C       -0.163489198    -2.317691774    -1.716128420
 H       -0.067897941    -1.940264192     1.506672040
 C       -0.232582502    -0.239084101     2.849010452
 C       -2.119178304    -1.233011999     1.545402385
 H       -8.894511648    -2.973403953    -2.310747309
 H       -8.047200801    -4.200264125    -3.240641349
 H       -7.378541116    -2.576373252    -3.138379285
 H       -5.141788191    -4.810827628    -0.983353550
 H       -5.170016447    -3.755839019    -2.412906169
 H       -5.986068071    -5.310639451    -2.440122017
 H       -5.109461339    -0.984521421     2.018060610
 H       -4.739262550    -2.285222180     3.144325039
 H       -6.395963038    -1.718618567     2.993036606
 H       -6.254218405    -5.153728642     1.297112140
 H       -7.090841808    -4.222780234     2.552038860
 H       -5.392856771    -4.635914566     2.738784269
 H       -1.399248633     5.997655180    -7.292884656
 H        0.028660180     6.495628300    -8.189367539
 H       -1.462243852     7.415356343    -8.352040009
 H        0.933506382     9.573877821    -6.296491824
 H       -0.107648340     9.579091152    -7.733805764
 H        1.302813171     8.532992753    -7.661378640
 H       -2.838148159    10.844414035    -3.872419108
 H       -1.728863517    10.916767153    -2.506194054
 H       -2.820274454     9.552704494    -2.646308469
 H        0.653356542     8.215840333    -3.487613141
 H       -0.748226934     8.001324382    -2.420103487
 H        0.249069551     9.444222561    -2.296073508
 H       -7.118426338    11.539991307     1.114991449
 H       -6.869441397    11.788168722     2.837858386
 H       -5.976349038    10.519670120     2.011591757
 H       -3.453696150    13.291720299     2.763683412
 H       -3.747344766    11.551582163     2.941209053
 H       -4.774427032    12.714091891     3.768442169
 H       -1.841576155    12.705894169    -1.795437565
 H       -1.640100992    14.449890196    -1.707684542
 H       -3.069249134    13.782725384    -2.486755712
 H       -4.179475989    15.279854249     0.869542765
 H       -4.475127234    15.342562987    -0.879592185
 H       -2.939213970    15.881921667    -0.216809503
 H       -0.826475632     0.934321330    -2.807448664
 H       -0.924953123    -0.589336404    -3.687805473
 H        0.632120018    -0.025168950    -3.099853129
 H       -0.373161973    -2.963252002    -0.853434734
 H        0.916278136    -2.361043254    -1.908913838
 H       -0.648161539    -2.792037249    -2.581736403
 H        0.845743936    -0.070964109     2.963826425
 H       -0.541412667    -0.849553992     3.709365616
 H       -0.733509819     0.733179575     2.965238262
 H       -2.471386062    -1.779948822     0.661299391
 H       -2.723077696    -0.318502737     1.636263221
 H       -2.378166323    -1.856937968     2.413134354

