187   

Si        0.000000000     0.000000000     0.000000000
 C        1.865234119     0.000000000     0.000000000
 C       -0.678638015     1.711415787     0.000000000
 C        0.140405923     2.813796568     0.263668599
 C       -0.385853479     4.105397810     0.260710518
 C       -1.741839445     4.323361746     0.003917373
 C       -2.562250779     3.217655681    -0.256392560
 C       -2.038850216     1.927816812    -0.259512017
 C       -2.335458347     5.655974803    -0.009378762
 C       -1.660440322     6.795432050     0.218438984
 C       -2.253599822     8.127951760     0.205228288
 C       -3.610090034     8.346475744    -0.051621974
 C       -4.134846130     9.638213907    -0.054265033
 C       -3.308819287    10.739590749     0.189826625
 C       -1.949209219    10.524777679     0.449310330
 C       -1.431295073     9.232451016     0.463212706
Si       -3.966164236    12.457268273     0.194135982
 C       -2.663649714    13.527680679    -0.510387398
 C       -2.190730309    14.664013677     0.016933786
 C       -1.139995329    15.470070196    -0.611568018
 C       -0.711267765    16.646606298     0.019802999
 C        0.280498328    17.435241561    -0.544292125
 C        0.882765234    17.047287453    -1.753414183
 C        0.489188716    15.853718366    -2.367963564
 C       -0.491403182    15.062782356    -1.780224626
 N        1.897409663    17.911249205    -2.273407797
 C        1.346415827    19.136066975    -2.893771143
 C        2.896310444    17.238761157    -3.123949848
 C        0.495566058    18.910300243    -4.158736909
 C       -1.014463068    18.951975839    -3.853043364
 N       -1.879776761    18.334281733    -4.883458333
 C       -1.853124042    16.899509142    -4.804870142
 C       -2.819415433    16.316052478    -3.969931197
 C       -2.869587559    14.937464898    -3.832145451
 C       -1.967298864    14.111513351    -4.521190736
 C       -1.019789586    14.702750568    -5.360698280
 C       -0.966093186    16.085216317    -5.515490081
 C       -1.641323600    18.860004086    -6.239428938
 C       -2.061971689    12.659374493    -4.341440972
 C       -1.257274769    11.776573033    -4.945751126
Si       -1.322024557     9.957366443    -4.765133570
 C       -1.331900974     9.148257572    -6.414389671
 C       -1.683976808     9.868068493    -7.562195612
 C       -1.688915478     9.247060566    -8.808890692
 C       -1.353765695     7.892982660    -8.936778389
 C       -1.008743609     7.175751995    -7.787319313
 C       -0.998191554     7.794885367    -6.538566705
 C       -1.373379394     7.287000053   -10.264101025
 C       -1.069618479     6.003861796   -10.523695453
 C       -1.088964498     5.397106230   -11.850548746
 C       -1.433190244     6.110549517   -13.001514736
 C       -1.438381870     5.490015172   -14.250684074
 C       -1.093199958     4.140777498   -14.376100994
 C       -0.747270300     3.422746070   -13.223242327
 C       -0.748048245     4.043585444   -11.977338281
Si       -1.094925585     3.306684838   -16.017000386
 C       -1.209917829     4.538337347   -17.413289181
 C        0.504730210     2.286077225   -16.169079955
 C       -2.580829352     2.121656455   -16.123948557
 C        0.226528651     9.431277599    -3.791486790
 C       -2.855033271     9.400943367    -3.789950084
 C       -5.547084742    12.607992230    -0.850264129
 C       -4.387333312    12.954042000     1.979751087
 C       -0.657259383    -0.899779865    -1.543347710
 C       -0.611578054    -0.925699246     1.546524990
 H        1.208139263     2.705460416     0.473618023
 H        0.274082345     4.946817860     0.464382843
 H       -3.621204843     3.365723981    -0.459998629
 H       -2.726347118     1.104297175    -0.472649621
 H       -3.408187880     5.676418187    -0.222750862
 H       -0.588001527     6.773675915     0.433617930
 H       -4.271232727     7.504886448    -0.248696807
 H       -5.203940948     9.747078744    -0.255143301
 H       -1.258314915    11.352175050     0.646496132
 H       -0.374243730     9.081304262     0.675194417
 H       -2.268237142    13.143014295    -1.469136858
 H       -2.558143313    15.085322130     0.960031834
 H       -1.170068965    16.955418214     0.958120655
 H        0.610738755    18.347515562    -0.051569654
 H        0.938307004    15.536369677    -3.305688423
 H       -0.764660367    14.119299464    -2.260493256
 H        3.746255728    17.927222455    -3.272321196
 H        2.528198397    16.924293152    -4.112253487
 H        3.282793594    16.349694111    -2.595180378
 H       -1.834700935    19.946338202    -6.232023406
 H       -2.368339165    18.398867559    -6.931044354
 H       -0.630171072    18.688573516    -6.635573182
 H       -3.516988846    16.957755299    -3.432722587
 H       -3.621397379    14.496506658    -3.175612440
 H       -0.314089306    14.081241195    -5.912263558
 H       -0.231957105    16.524610740    -6.184028530
 H       -2.872105526    12.355428740    -3.664851895
 H       -0.449125311    12.112982738    -5.617839651
 H       -1.961195717    10.926107615    -7.520929206
 H       -1.960097618     9.822559755    -9.691833636
 H       -0.745038357     6.122272242    -7.859706874
 H       -0.718778945     7.183828013    -5.674923073
 H       -1.662043619     7.965048264   -11.072605998
 H       -0.781281266     5.325568356    -9.715244959
 H       -1.702464203     7.162879451   -12.931555857
 H       -1.717144591     6.099773957   -15.114497625
 H       -0.468198061     2.365960335   -13.260462275
 H       -0.478222950     3.469049237   -11.093244629
 H        0.756701491    19.671892988    -2.116336124
 H        2.209940874    19.797920138    -3.130986350
 H        0.745240923    19.671194380    -4.918828453
 H        0.752287046    17.934867309    -4.615387080
 H       -1.220908622    18.438791012    -2.883985573
 H       -1.353396552    20.004545169    -3.732632334
 H        2.263076058    -1.029831816    -0.041489349
 H        2.274837381     0.478003420     0.907139621
 H        2.261576733     0.543817352    -0.876707519
 H       -1.163996377     4.033065737   -18.394510584
 H       -0.375107164     5.261511523   -17.373370076
 H       -2.153716939     5.110181533   -17.377740293
 H        0.476646829     1.539527935   -15.322725061
 C        0.608156637     1.499045416   -17.487600104
 C        1.770513914     3.145174013   -15.996894994
 H       -2.554695351     1.694337816   -17.167892545
 C       -2.509834691     0.950182393   -15.128130742
 C       -3.926898137     2.845740946   -15.937846870
 H        0.099102136     8.330621828    -3.576833341
 C        1.526135123     9.611389643    -4.595523713
 C        0.359262034    10.169403938    -2.448677415
 H       -2.875578148    10.027779057    -2.849523341
 C       -4.159706312     9.647850648    -4.569046309
 C       -2.805402560     7.923084291    -3.365531082
 H       -6.312992129    11.957800491    -0.335327936
 C       -6.095999543    14.045746501    -0.893423222
 C       -5.387683364    12.096282895    -2.291428245
 H       -4.676303510    14.044137167     1.940361868
 C       -5.574873144    12.167496777     2.562763649
 C       -3.186079493    12.811060603     2.932051603
 H       -1.781854640    -0.902131225    -1.444176305
 C       -0.301937440    -0.165936027    -2.849202991
 C       -0.190399592    -2.362531277    -1.646861547
 H       -0.113442384    -1.937704487     1.511935352
 C       -0.190833477    -0.230713010     2.854498107
 C       -2.134610347    -1.145726878     1.573390450
 H       -0.229019668     0.807516764   -17.648031704
 H        1.519179413     0.882986644   -17.486238041
 H        0.679084810     2.148756770   -18.369968511
 H        1.792909675     3.699518466   -15.047593174
 H        1.909201561     3.872482244   -16.807755861
 H        2.664038150     2.504792291   -15.999330244
 H       -1.612189249     0.330357218   -15.246664220
 H       -3.367544745     0.278262853   -15.277828468
 H       -2.558423907     1.278133237   -14.080135789
 H       -4.096173572     3.647049663   -16.668545709
 H       -4.042823494     3.280508450   -14.934494783
 H       -4.757095854     2.135934223   -16.062981660
 H        1.521985325     9.078152396    -5.556373078
 H        2.377860617     9.211183430    -4.027452595
 H        1.760609472    10.664338091    -4.801610615
 H       -0.518726685    10.046833793    -1.796861399
 H        0.535637022    11.247900858    -2.567551853
 H        1.216589051     9.775607915    -1.885652304
 H       -4.310401418    10.698998676    -4.850002685
 H       -5.026046386     9.359385882    -3.957099040
 H       -4.226483908     9.049417629    -5.489170128
 H       -1.966566541     7.692057383    -2.693538735
 H       -2.763392911     7.227312818    -4.213579749
 H       -3.714389607     7.665691242    -2.801533166
 H       -6.344252704    14.447824515     0.097008280
 H       -7.027906499    14.075729221    -1.476029453
 H       -5.408013490    14.755029309    -1.376252933
 H       -4.977656000    11.077886235    -2.353728267
 H       -4.754158289    12.749256004    -2.908428116
 H       -6.366928198    12.062871366    -2.790078271
 H       -6.507847406    12.305944812     2.001915327
 H       -5.782631392    12.506014883     3.588510493
 H       -5.381821302    11.087588598     2.632133158
 H       -2.300868361    13.377552467     2.612099919
 H       -2.875731945    11.765312471     3.071256247
 H       -3.449141857    13.188204512     3.930449847
 H       -0.655623982     0.874760011    -2.872073053
 H       -0.774239725    -0.669103510    -3.704970625
 H        0.776557973    -0.153280326    -3.055041041
 H       -0.472708640    -2.971736203    -0.778482314
 H        0.895030677    -2.457254290    -1.783353105
 H       -0.652492913    -2.842654984    -2.521798123
 H        0.895211345    -0.106532000     2.953571919
 H       -0.511277083    -0.829677890     3.719076977
 H       -0.651674452     0.759780029     2.979125781
 H       -2.509472966    -1.708642698     0.709282216
 H       -2.700571311    -0.205625206     1.635935499
 H       -2.413520782    -1.729468438     2.462910875

