187   

Si        0.000000000     0.000000000     0.000000000
 C        1.864992228     0.000000000     0.000000000
 C       -0.675738349     1.712715266     0.000000000
 C        0.105468005     2.791429750     0.427216545
 C       -0.411600210     4.086643903     0.425074222
 C       -1.720495625     4.332788002     0.002255312
 C       -2.503721084     3.250450724    -0.420155427
 C       -1.990370481     1.956310194    -0.419314977
 C       -2.303018399     5.670582160    -0.016864643
 C       -1.661201389     6.789131657     0.361033697
 C       -2.241619866     8.127741949     0.342760303
 C       -3.550822671     8.376161488    -0.079852672
 C       -4.065430387     9.671993849    -0.081051390
 C       -3.275533544    10.748790204     0.334702984
 C       -1.963583612    10.504226643     0.759714740
 C       -1.456214906     9.207496449     0.767074267
Si       -3.939305097    12.464313923     0.339108300
 C       -2.536085604    13.635904171     0.337932011
 C       -2.372493426    14.674378681     1.167096182
 C       -1.222425733    15.580673751     1.116541451
 C       -1.152912107    16.638911420     2.036184355
 C       -0.084987522    17.521205014     2.026692714
 C        0.964512249    17.349104360     1.103197519
 C        0.896152133    16.299221474     0.177809503
 C       -0.198585717    15.440864360     0.177134380
 N        2.031882061    18.291485553     1.146973516
 C        2.821318624    18.211650424     2.399469033
 C        2.889640373    18.328140753    -0.051626492
 C        3.376783774    16.810535346     2.716359849
 C        2.523439956    16.078891561     3.773605540
 N        2.573593805    14.608511200     3.668951858
 C        3.856715453    14.028517160     3.646401809
 C        4.846998536    14.518949995     4.525184056
 C        6.117532172    13.968189138     4.525347497
 C        6.439891269    12.887145916     3.691371536
 C        5.449215078    12.385118525     2.843932962
 C        4.173683302    12.935403361     2.819981545
 C        1.580577370    14.061761423     2.730822182
 C        7.798241055    12.342197043     3.730424267
 C        8.214711087    11.314191439     2.979599108
Si        9.892534318    10.590977996     2.983449845
 C       10.512393812    10.455431914     1.256582214
 C        9.967459333    11.258270637     0.246967602
 C       10.434086625    11.158490132    -1.061358443
 C       11.461207189    10.264364431    -1.390261510
 C       12.007076053     9.468920534    -0.378507375
 C       11.539437812     9.562842528     0.931518561
 C       11.915517412    10.196633923    -2.775304978
 C       12.885799131     9.382368194    -3.224027386
 C       13.339395452     9.315389689    -4.609313659
 C       12.793920960    10.110330224    -5.620604107
 C       13.257888189    10.013780393    -6.932484393
 C       14.275041184     9.112898162    -7.262719908
 C       14.823069597     8.313288493    -6.250425344
 C       14.361607446     8.415891032    -4.941126591
Si       14.898712910     8.973057064    -8.989019739
 C       13.778881500     9.848760103   -10.196829015
 C       16.636482164     9.742305488    -9.099674023
 C       15.024878034     7.125420148    -9.429232943
 C       11.101785366    11.651601658     3.997690807
 C        9.800624433     8.856610235     3.761642307
 C       -4.979645655    12.754643331    -1.225646752
 C       -5.042855284    12.706582068     1.867403873
 C       -0.650125340    -0.913443624    -1.538842592
 C       -0.625697255    -0.913260206     1.548047294
 H        1.136453955     2.661679375     0.768168975
 H        0.218283838     4.909178649     0.759360731
 H       -3.526088165     3.419872342    -0.752563719
 H       -2.649125194     1.151976721    -0.758245791
 H       -3.336861292     5.714503493    -0.371487426
 H       -0.627212810     6.744166273     0.715971972
 H       -4.182115686     7.554283750    -0.412320550
 H       -5.096439355     9.804946392    -0.419881227
 H       -1.303348493    11.309028191     1.099699823
 H       -0.435896199     9.034288848     1.104985126
 H       -1.796348720    13.417743535    -0.451927525
 H       -3.091597053    14.927310957     1.956294796
 H       -1.954155967    16.776486436     2.762541198
 H       -0.055982621    18.358627151     2.720980084
 H        1.690954714    16.145745727    -0.546685665
 H       -0.242182609    14.641128081    -0.564102095
 H        3.528246308    19.227618846     0.003150596
 H        2.259270120    18.436681134    -0.951403798
 H        3.539744501    17.448295599    -0.175683738
 H        0.599806936    14.542459060     2.905101221
 H        1.445942840    12.983018446     2.926625987
 H        1.841416391    14.210807502     1.670205010
 H        4.613217097    15.333001953     5.205390623
 H        6.873672366    14.374343364     5.197596726
 H        5.672819659    11.544686689     2.184706675
 H        3.435474350    12.518546283     2.141895720
 H        8.452853002    12.863739722     4.440725763
 H        7.527464049    10.806162269     2.282199907
 H        9.166111894    11.977209854     0.447135818
 H        9.995003891    11.785682378    -1.834836892
 H       12.805666728     8.766057331    -0.607742745
 H       12.003141210     8.914177146     1.679721208
 H       11.398848094    10.876159274    -3.459540254
 H       13.402280262     8.702444800    -2.540257184
 H       11.997969462    10.816342307    -5.390786830
 H       12.792599032    10.662349271    -7.679872557
 H       15.619266730     7.590517118    -6.449904289
 H       14.800283276     7.787200224    -4.168594416
 H        3.653277589    18.946816394     2.325710443
 H        2.172359305    18.576597022     3.226927548
 H        3.428663331    16.202774378     1.792072325
 H        4.423228586    16.880607153     3.066212974
 H        2.853380852    16.362710616     4.798489000
 H        1.457322295    16.395959399     3.700489123
 H        2.262997915    -1.029338509    -0.049101102
 H        2.276493490     0.472257551     0.909133096
 H        2.259535164     0.550720317    -0.873493178
 H       14.137966973     9.725135970   -11.234174838
 H       13.722853400    10.932126612    -9.991449986
 H       12.751986517     9.442803209   -10.151024848
 H       16.928464787     9.679298971   -10.187786670
 C       16.651601654    11.225480273    -8.686331330
 C       17.698783439     8.990836009    -8.277598911
 H       15.751140918     6.680001968    -8.688558111
 C       13.682090252     6.389264149    -9.271966624
 C       15.575984428     6.867138556   -10.842811113
 H       10.624766077    11.780794855     5.012279994
 C       12.475429676    10.987075229     4.199429854
 C       11.314316767    13.047883473     3.384483835
 H       10.858277747     8.463895686     3.773239447
 C        9.283123974     8.874417500     5.210585032
 C        8.942060835     7.884121633     2.933446444
 H       -5.835829125    12.021409877    -1.168876990
 C       -5.571551184    14.172867598    -1.300844539
 C       -4.194611079    12.468048865    -2.517998461
 H       -5.332187316    13.797393338     1.872424236
 C       -6.335383867    11.872291594     1.823373324
 C       -4.300922188    12.399312461     3.181183159
 H       -1.774825072    -0.921791753    -1.442816391
 C       -0.294205321    -0.188167585    -2.849216139
 C       -0.176308968    -2.375005633    -1.630354540
 H       -0.151021073    -1.936207859     1.514221493
 C       -0.189432681    -0.227644902     2.855786635
 C       -2.153859454    -1.096250979     1.572353375
 H       15.979625437    11.852524963    -9.286271335
 H       17.660123854    11.643119039    -8.817822586
 H       16.391783437    11.376784567    -7.628643380
 H       17.809144696     7.937840034    -8.565789560
 H       17.505233406     9.027058908    -7.196243262
 H       18.685160108     9.453968474    -8.426791215
 H       13.250667255     6.483795818    -8.265074999
 H       13.819381751     5.312667060    -9.446917606
 H       12.921942613     6.724483752    -9.989946237
 H       16.569968557     7.302460726   -11.008263820
 H       14.912482185     7.237252764   -11.635576645
 H       15.682373913     5.785664617   -11.012019988
 H       12.421419160    10.025254153     4.725002676
 H       13.119333428    11.634647199     4.812258156
 H       13.015618586    10.825692767     3.255871804
 H       10.382602369    13.612087393     3.241662909
 H       11.827490689    13.011784576     2.412563043
 H       11.947256872    13.657797235     4.044161926
 H        9.900533349     9.480320929     5.886147285
 H        9.284282316     7.855583745     5.623479074
 H        8.248128886     9.237235152     5.290914950
 H        9.276074348     7.787364474     1.890753151
 H        7.878567064     8.159650100     2.917265194
 H        8.992262151     6.874894962     3.366214400
 H       -6.222368897    14.418952145    -0.451898288
 H       -6.192212826    14.274246783    -2.202812835
 H       -4.802455343    14.955593352    -1.368522076
 H       -3.772627523    11.453717768    -2.555963173
 H       -3.372303758    13.176801380    -2.686239815
 H       -4.859237975    12.555530830    -3.389454257
 H       -6.975569660    12.104638868     0.962842646
 H       -6.942301401    12.072824998     2.718514238
 H       -6.146603875    10.789346596     1.820512518
 H       -3.381156019    12.984708450     3.315839718
 H       -4.030854931    11.337570327     3.278753027
 H       -4.944575128    12.632129665     4.041173623
 H       -0.650935869     0.851289218    -2.880961167
 H       -0.761678346    -0.699523712    -3.702662197
 H        0.785003071    -0.173020744    -3.051859687
 H       -0.460185855    -2.979522079    -0.759271358
 H        0.910147651    -2.465955649    -1.761126616
 H       -0.632124440    -2.862970163    -2.504180315
 H        0.899335530    -0.132084682     2.956279233
 H       -0.526757820    -0.816959693     3.720556983
 H       -0.625023884     0.774484761     2.978488149
 H       -2.537755897    -1.667388903     0.717643756
 H       -2.697869000    -0.141799907     1.611809733
 H       -2.451047336    -1.654853971     2.471881603

