187   

Si        0.000000000     0.000000000     0.000000000
 C        1.865077487     0.000000000     0.000000000
 C       -0.681793821     1.709969177     0.000000000
 C        0.110192441     2.804937862     0.359748626
 C       -0.419238938     4.095465168     0.355392596
 C       -1.751109869     4.320013268    -0.002144424
 C       -2.544819055     3.221107180    -0.357716435
 C       -2.019206047     1.932190693    -0.355372103
 C       -2.349420200     5.650556209    -0.021733403
 C       -1.705144557     6.786860140     0.293995990
 C       -2.309543598     8.114963492     0.272374999
 C       -3.643117012     8.328500081    -0.086914831
 C       -4.182072960     9.614537646    -0.094526777
 C       -3.401011353    10.714816347     0.272236520
 C       -2.064130493    10.503609664     0.635361706
 C       -1.525517157     9.219858031     0.630210791
Si       -4.085627630    12.420011499     0.271159106
 C       -3.375726371    13.443361622     1.610734357
 C       -2.957214762    12.945746079     2.782448692
 C       -2.386891522    13.749425018     3.865048405
 C       -1.987087680    13.102714097     5.043836286
 C       -1.441449285    13.814677298     6.099332118
 C       -1.335696592    15.218991278     6.029078183
 C       -1.732853338    15.868773825     4.849308172
 C       -2.220319260    15.133753649     3.774755235
 N       -0.771502898    15.905656534     7.131212608
 C       -1.354238785    15.589601674     8.452068559
 C       -0.544672634    17.349903026     6.948730086
 C       -2.817722503    16.035327264     8.639008351
 C       -3.807545114    14.861176892     8.493164306
 N       -5.177400912    15.260745503     8.095849591
 C       -5.208184386    15.749310440     6.750379303
 C       -5.132759986    14.779467801     5.735684280
 C       -5.156388092    15.170058072     4.407181684
 C       -5.305298144    16.520551829     4.055383528
 C       -5.403536429    17.474009250     5.070087630
 C       -5.355321963    17.098199671     6.409664614
 C       -5.829464651    16.132164656     9.088990788
 C       -5.322894404    16.871346169     2.633513897
 C       -5.458423193    18.120224963     2.170814543
Si       -5.486367359    18.608411546     0.410157362
 C       -4.299006835    19.989831561     0.152358483
 C       -3.231254421    20.166497724     1.039504020
 C       -2.325051410    21.209447361     0.854680088
 C       -2.455838518    22.086309331    -0.226054406
 C       -3.521404091    21.901173520    -1.116873088
 C       -4.433426655    20.865010723    -0.931561190
 C       -1.531323591    23.191159336    -0.458618221
 C       -0.472126567    23.478331126     0.317043989
 C        0.452670873    24.582907117     0.085060413
 C        0.319117686    25.464783608    -0.990375169
 C        1.226733434    26.507831400    -1.174382639
 C        2.293248622    26.687652419    -0.287924854
 C        2.429794253    25.803797261     0.791242446
 C        1.519422406    24.766950229     0.975190965
Si        3.499245975    28.059482802    -0.517535039
 C        3.352040332    28.825568979    -2.211940066
 C        3.184261110    29.403893619     0.792836416
 C        5.252362656    27.363669777    -0.260617092
 C       -4.880910006    17.162796912    -0.673752576
 C       -7.248433458    19.095599326    -0.092678576
 C       -3.714659120    13.251368581    -1.396571815
 C       -5.974619989    12.367295712     0.513984582
 C       -0.651126157    -0.910073362    -1.540406047
 C       -0.618513751    -0.919632434     1.547439284
 H        1.158985525     2.691738315     0.647818499
 H        0.219121077     4.931282825     0.636118643
 H       -3.585004527     3.373915443    -0.639242004
 H       -2.686867639     1.114686114    -0.641724587
 H       -3.401348589     5.673296073    -0.322007192
 H       -0.653456423     6.766603247     0.594007464
 H       -4.274485525     7.487830289    -0.368405899
 H       -5.229192719     9.717935881    -0.391611734
 H       -1.406555145    11.328634983     0.930706841
 H       -0.483863961     9.075626380     0.911473555
 H       -3.320351277    14.520886353     1.391217936
 H       -3.005435123    11.873661406     3.022799711
 H       -2.091793734    12.020392252     5.128407800
 H       -1.091091185    13.288749894     6.983460714
 H       -1.674287314    16.949363210     4.760359107
 H       -2.505714383    15.661874582     2.862556150
 H        0.013640330    17.741444463     7.816144193
 H       -1.467710249    17.940511745     6.833877248
 H        0.091754548    17.507109497     6.059120280
 H       -5.918455248    15.572600528    10.036433243
 H       -6.853868189    16.363923171     8.747892359
 H       -5.304596481    17.077069639     9.291780395
 H       -5.043497206    13.727479112     6.003210716
 H       -5.075038138    14.409823185     3.625667013
 H       -5.517186574    18.529134684     4.820902601
 H       -5.426792660    17.858386447     7.181185438
 H       -5.202456789    16.000730446     1.973530814
 H       -5.583390290    18.971425142     2.860859906
 H       -3.075403099    19.506307760     1.899842578
 H       -1.507015264    21.333186234     1.561955991
 H       -3.640677174    22.573388726    -1.964517552
 H       -5.246477164    20.770589668    -1.656210815
 H       -1.758228964    23.799882730    -1.338781706
 H       -0.244900855    22.868802205     1.196599224
 H       -0.499826999    25.344288749    -1.697127547
 H        1.070011952    27.165427303    -2.033942197
 H        3.244105224    25.895128859     1.515684762
 H        1.641459049    24.091375767     1.819648707
 H       -1.251029556    14.495479986     8.627249792
 H       -0.709605045    16.073241541     9.221536996
 H       -2.942413965    16.511590430     9.626834452
 H       -3.067413781    16.820855615     7.897749868
 H       -3.434838902    14.139117143     7.728375159
 H       -3.884804846    14.297526624     9.447748674
 H        2.262777947    -1.029839681    -0.040343619
 H        2.275921638     0.479690895     0.905552544
 H        2.260203344     0.543144862    -0.877847421
 H        4.106811346    29.619096987    -2.356971370
 H        2.358197397    29.279105023    -2.371618019
 H        3.509320959    28.069947828    -3.003003780
 H        3.915420451    30.231771448     0.562236285
 C        1.761449018    29.986492410     0.709580867
 C        3.439557447    28.930912604     2.235096895
 H        5.276670590    26.969361301     0.796872242
 C        5.565098993    26.190775271    -1.207315150
 C        6.359586778    28.424397844    -0.393277892
 H       -5.456481517    16.251980006    -0.337765158
 C       -5.145819807    17.362443503    -2.175377990
 C       -3.378799677    16.896510044    -0.464303060
 H       -7.199062081    19.362497332    -1.188228319
 C       -8.258045501    17.945130716     0.071185297
 C       -7.761079885    20.328530185     0.672710914
 H       -4.175129241    14.281999210    -1.341060814
 C       -2.204842277    13.412105786    -1.646567828
 C       -4.344485037    12.515903344    -2.591599476
 H       -6.374053486    11.727365045    -0.324577074
 C       -6.369277194    11.710561523     1.849028780
 C       -6.652456545    13.745421256     0.420080660
 H       -1.775610239    -0.921034249    -1.441913250
 C       -0.300495243    -0.179050765    -2.849029548
 C       -0.173823145    -2.369997195    -1.638245201
 H       -0.136170594    -1.938928974     1.510864088
 C       -0.184959780    -0.232839278     2.855508236
 C       -2.145019502    -1.114989121     1.575429882
 H        1.524455675    30.421716094    -0.269760095
 H        1.642816963    30.797393681     1.442574320
 H        0.982596972    29.245925920     0.941840416
 H        4.464807748    28.577786717     2.403203507
 H        2.751456746    28.134082662     2.550799474
 H        3.284015084    29.764013481     2.936147004
 H        4.842934157    25.365436272    -1.129036638
 H        6.548023330    25.762174543    -0.964910754
 H        5.610684393    26.490912178    -2.262590818
 H        6.242581754    29.264944561     0.302899239
 H        6.436883370    28.838135574    -1.407500973
 H        7.338154031    27.974793332    -0.169973853
 H       -6.209811930    17.473189169    -2.419564315
 H       -4.791337381    16.486983517    -2.739393736
 H       -4.614244662    18.228493854    -2.593462866
 H       -3.116859592    16.661947979     0.576726127
 H       -2.746474129    17.739504222    -0.779593807
 H       -3.054778095    16.037710000    -1.070594874
 H       -8.000203927    17.052701327    -0.513685954
 H       -9.251296813    18.263845607    -0.275786435
 H       -8.385007580    17.633300668     1.117998785
 H       -7.111099109    21.208582480     0.568221112
 H       -7.895328669    20.140274209     1.746968457
 H       -8.746332648    20.628354472     0.287897362
 H       -1.685717312    13.969794336    -0.854622128
 H       -2.032881388    13.966367677    -2.580267054
 H       -1.687546798    12.448922503    -1.764800909
 H       -5.438337487    12.447947960    -2.534451611
 H       -3.953123694    11.496930370    -2.723489958
 H       -4.118724190    13.051301317    -3.525279596
 H       -5.978303492    10.690806268     1.967512662
 H       -7.462897793    11.628498795     1.921557617
 H       -6.045430164    12.291614330     2.725232109
 H       -6.477246020    14.253193414    -0.536884949
 H       -6.349920956    14.426106531     1.229145967
 H       -7.742900526    13.634179542     0.510627094
 H       -0.659216196     0.859926637    -2.875407095
 H       -0.770236985    -0.687677761    -3.702902123
 H        0.777917042    -0.161381930    -3.055275853
 H       -0.451702507    -2.977792888    -0.767521458
 H        0.912221681    -2.457432064    -1.774625726
 H       -0.632614291    -2.856755676    -2.511207405
 H        0.903125321    -0.127162910     2.953190127
 H       -0.514361439    -0.827150385     3.719886256
 H       -0.629373348     0.764972060     2.981421433
 H       -2.527747342    -1.681340344     0.717030815
 H       -2.696116959    -0.165199062     1.626004781
 H       -2.434365687    -1.684101435     2.470953774

