187   

Si        0.000000000     0.000000000     0.000000000
 C        1.865734080     0.000000000     0.000000000
 C       -0.672947558     1.713411928     0.000000000
 C        0.165698580     2.817985391     0.178963722
 C       -0.354903748     4.111886992     0.177217125
 C       -1.724107989     4.331243251     0.005523877
 C       -2.563594086     3.223205795    -0.171522233
 C       -2.046202911     1.930803939    -0.176513547
 C       -2.311038898     5.667326510    -0.002883847
 C       -1.615340413     6.807006639     0.150022255
 C       -2.195683585     8.145663621     0.142631090
 C       -3.563830474     8.374424439    -0.028427065
 C       -4.074391632     9.672148057    -0.028629497
 C       -3.221896911    10.769982306     0.125510171
 C       -1.849509749    10.544958803     0.293942790
 C       -1.345405818     9.247250028     0.307200592
Si       -3.868534838    12.492256697     0.128960302
 C       -2.570013106    13.626749019    -0.474877093
 C       -2.168114069    14.756452463     0.121881732
 C       -1.120158124    15.631890987    -0.405839055
 C       -0.779743421    16.791873327     0.304055436
 C        0.205236384    17.651469515    -0.154946100
 C        0.852429497    17.405819533    -1.385239735
 C        0.508123117    16.242560001    -2.100415885
 C       -0.444778134    15.365491047    -1.600250573
 N        1.851215430    18.283522072    -1.843733467
 C        1.712240728    19.706839585    -1.484420137
 C        2.322880378    18.087835217    -3.225829066
 C        0.410839166    20.342091372    -2.006204721
 C        0.503745543    21.869655043    -2.153672923
 N        1.492349507    22.365721700    -3.138558457
 C        1.637713135    21.582194046    -4.304841225
 C        0.473111394    21.253770145    -5.031581044
 C        0.561840821    20.488296452    -6.181333201
 C        1.804811422    20.051915251    -6.666356997
 C        2.956488212    20.402563487    -5.959267915
 C        2.884238342    21.166767682    -4.799308718
 C        2.730489208    22.871539940    -2.524975786
 C        1.839982665    19.244442667    -7.887542914
 C        2.963884236    18.773153519    -8.442595696
Si        3.062424862    17.762857299    -9.962728503
 C        4.305335234    18.477209062   -11.113683842
 C        4.717623326    19.808161626   -10.976090565
 C        5.659349478    20.347558846   -11.849023433
 C        6.202871713    19.575885960   -12.884163524
 C        5.783907785    18.249262069   -13.022167843
 C        4.844519841    17.704491542   -12.148090233
 C        7.186417712    20.185861090   -13.772986945
 C        7.785128374    19.556836140   -14.798472598
 C        8.768656593    20.166517212   -15.687417016
 C        9.188757308    21.492166628   -15.551253334
 C       10.131913034    22.034683457   -16.424113967
 C       10.680484542    21.259252955   -17.450329118
 C       10.260930792    19.929262024   -17.588800920
 C        9.315498404    19.392250566   -16.719681618
Si       11.926128493    21.960196048   -18.610532925
 C       12.602568518    23.584609730   -17.991422810
 C       13.333991076    20.694803044   -18.810988751
 C       11.120180940    22.241698694   -20.311847236
 C        3.587773695    16.000772909    -9.471639101
 C        1.377587694    17.675051698   -10.840275577
 C       -5.371231824    12.625215077    -1.031253866
 C       -4.421690920    12.938468976     1.892742594
 C       -0.663658239    -0.893170952    -1.544012535
 C       -0.602224416    -0.930513529     1.547588129
 H        1.244635996     2.710265700     0.320792705
 H        0.320641108     4.954476203     0.314076549
 H       -3.632965979     3.371821103    -0.308468840
 H       -2.749094087     1.106073639    -0.324290353
 H       -3.394900767     5.691040735    -0.146480447
 H       -0.530810399     6.780822295     0.293868291
 H       -4.245196794     7.536163106    -0.159512511
 H       -5.153529342     9.788894435    -0.158785893
 H       -1.137868156    11.368196716     0.418969163
 H       -0.277037216     9.090012506     0.443718695
 H       -2.120817395    13.297634921    -1.427249089
 H       -2.597941347    15.116064955     1.065682946
 H       -1.287210519    17.017975558     1.242182700
 H        0.472820433    18.518761482     0.440876624
 H        0.985594930    16.010813657    -3.047622932
 H       -0.678313545    14.461860201    -2.166059352
 H        3.094306834    18.838020950    -3.473359847
 H        1.523682846    18.172019947    -3.981521367
 H        2.800506162    17.095391281    -3.310548890
 H        2.470003680    23.610756917    -1.746948097
 H        3.320376317    23.411796426    -3.288017047
 H        3.366206036    22.095666256    -2.070522929
 H       -0.494481701    21.610696834    -4.686237112
 H       -0.349331695    20.232427290    -6.723537034
 H        3.935449211    20.080892471    -6.318657336
 H        3.801788671    21.420318608    -4.277997218
 H        0.844482356    19.062979585    -8.313496656
 H        3.948887064    18.967946397    -7.986006211
 H        4.322189595    20.459584208   -10.189922944
 H        5.972119347    21.382638506   -11.724498010
 H        6.190316174    17.628479040   -13.818455297
 H        4.556673030    16.661202869   -12.304391666
 H        7.419818752    21.230782349   -13.548117428
 H        7.551378329    18.512102139   -15.023070972
 H        8.779801130    22.115970595   -14.758484835
 H       10.420562802    23.077846195   -16.268016898
 H       10.655108721    19.275723676   -18.372148832
 H        9.000841993    18.357912869   -16.844435481
 H        1.779395871    19.800419557    -0.377578105
 H        2.599809393    20.246241102    -1.885821884
 H        0.138014497    19.882536566    -2.978565085
 H       -0.429937672    20.087625096    -1.331797463
 H       -0.489538209    22.265074309    -2.479393755
 H        0.708430505    22.332909592    -1.164140111
 H        2.263676747    -1.029951371    -0.033150373
 H        2.274060550     0.485244996     0.903887507
 H        2.262885097     0.536635620    -0.880667954
 H       13.377624255    23.978629635   -18.672900501
 H       13.066077771    23.466683239   -16.995039899
 H       11.812859782    24.351630280   -17.907455226
 H       12.854265603    19.762276027   -19.229015744
 C       14.427965930    21.143757427   -19.795957635
 C       13.989135366    20.324679672   -17.467937860
 H       11.917633490    22.719718253   -20.951283839
 C       10.670332153    20.942661634   -21.003970502
 C        9.920802556    23.204820056   -20.244501221
 H        3.601074199    15.402065988   -10.427962253
 C        5.000784151    15.955005655    -8.863434440
 C        2.600947789    15.328164990    -8.501304592
 H        0.640204052    17.324823597   -10.061022690
 C        0.914158841    19.048357229   -11.359346338
 C        1.347059689    16.671089294   -12.006478785
 H       -6.149800774    11.922609401    -0.615335300
 C       -5.978060405    14.038910802    -1.069252492
 C       -5.047913631    12.179740356    -2.468706414
 H       -4.718491734    14.026540600     1.859554435
 C       -5.639732606    12.126829269     2.369272309
 C       -3.288492575    12.779892598     2.922893396
 H       -1.788709414    -0.872141302    -1.451963348
 C       -0.285720310    -0.171361160    -2.850290780
 C       -0.225035559    -2.365208465    -1.639221640
 H       -0.088096474    -1.934678961     1.515568715
 C       -0.193318279    -0.226214081     2.854446432
 C       -2.121361761    -1.176062188     1.575709857
 H       14.045685333    21.359758749   -20.801968007
 H       15.174654689    20.345306620   -19.916352792
 H       14.978700899    22.028612074   -19.450209730
 H       13.272767214    19.943146041   -16.726264240
 H       14.527094796    21.163595388   -17.006873771
 H       14.730204604    19.526486673   -17.617222916
 H       11.486672828    20.226654659   -21.161918790
 H       10.265556763    21.169800073   -22.001098929
 H        9.867715422    20.425432042   -20.459521031
 H       10.175282535    24.191358235   -19.836206317
 H        9.084851225    22.805221060   -19.652419307
 H        9.524214761    23.383580514   -21.254269296
 H        5.771553047    16.382664764    -9.520296784
 H        5.298590875    14.912481333    -8.681227897
 H        5.067260092    16.468306267    -7.894499897
 H        1.583216862    15.244795674    -8.903974619
 H        2.534702874    15.843245943    -7.532126204
 H        2.928989671    14.301712008    -8.282884597
 H        0.867885682    19.821596399   -10.580402024
 H       -0.098804668    18.971338799   -11.778853414
 H        1.552710750    19.435428814   -12.166846394
 H        1.572837706    15.641261804   -11.702038422
 H        2.033530035    16.940355191   -12.821627090
 H        0.341729428    16.644471919   -12.451922413
 H       -6.316638149    14.393965351    -0.087452287
 H       -6.862125575    14.051845115    -1.722430951
 H       -5.285488627    14.790795275    -1.474285516
 H       -4.643757148    11.159418406    -2.528795824
 H       -4.337245916    12.848350250    -2.973872101
 H       -5.961990009    12.184106488    -3.079141479
 H       -6.530373432    12.270096301     1.744457813
 H       -5.925026952    12.438515875     3.384555580
 H       -5.439417115    11.047477350     2.426916352
 H       -2.388799949    13.361831127     2.680330593
 H       -2.976861546    11.733432336     3.054355879
 H       -3.624366165    13.126962612     3.910064064
 H       -0.619223494     0.875934827    -2.879143621
 H       -0.762390088    -0.668373440    -3.707181298
 H        0.794043335    -0.180386941    -3.049284127
 H       -0.525222473    -2.965633719    -0.770776722
 H        0.859254448    -2.481574335    -1.767572228
 H       -0.690314995    -2.839220316    -2.515746753
 H        0.890672188    -0.085516515     2.954243414
 H       -0.505839837    -0.827507294     3.720182069
 H       -0.668551272     0.757929312     2.975758597
 H       -2.489449053    -1.735773273     0.706697877
 H       -2.702142096    -0.246048947     1.650149948
 H       -2.388004469    -1.773561919     2.459801330

