187   

Si        0.000000000     0.000000000     0.000000000
 C        1.865347100     0.000000000     0.000000000
 C       -0.673891884     1.713131895     0.000000000
 C        0.129029511     2.801767524     0.355211041
 C       -0.389436483     4.096499561     0.352568394
 C       -1.721441208     4.332327173     0.002275375
 C       -2.525929633     3.239975010    -0.348739165
 C       -2.010866102     1.946577078    -0.349056486
 C       -2.305921502     5.669289228    -0.014333103
 C       -1.644220979     6.796508659     0.297991726
 C       -2.225908701     8.134604360     0.282298599
 C       -3.558110247     8.373264283    -0.067735247
 C       -4.072606929     9.668958465    -0.069148987
 C       -3.259666153    10.756057894     0.269812258
 C       -1.924608707    10.520999073     0.620377231
 C       -1.417038620     9.224215798     0.630488494
Si       -3.931961088    12.468520929     0.270046280
 C       -2.565173303    13.673909007     0.165718498
 C       -2.378043367    14.738234460     0.957564065
 C       -1.254004138    15.665727589     0.814564315
 C       -1.142304502    16.752789027     1.692179550
 C       -0.092432275    17.652897198     1.588925757
 C        0.867056472    17.519803957     0.563629469
 C        0.754326918    16.426970633    -0.318268243
 C       -0.277559954    15.510604153    -0.173686792
 N        1.939327436    18.423087178     0.442559857
 C        1.810946944    19.736966753     1.090658827
 C        2.598192949    18.494856427    -0.873234250
 C        0.713810030    20.620832773     0.474323359
 C        0.523776863    21.929350143     1.258254342
 N       -0.118725373    21.783724730     2.573384017
 C       -1.376337450    21.170198928     2.639634124
 C       -2.258812844    21.240962580     1.539126375
 C       -3.503475830    20.636441037     1.598545998
 C       -3.939136035    19.981637017     2.759712232
 C       -3.074960691    19.934968895     3.856491406
 C       -1.815541960    20.518313938     3.808968736
 C        0.810076517    21.554516471     3.688856286
 C       -5.263744510    19.360058408     2.766930019
 C       -5.783269123    18.709333264     3.816801620
Si       -7.435892031    17.929316477     3.837426107
 C       -8.626969692    18.797793915     2.736417868
 C       -8.506362054    20.177765066     2.526898752
 C       -9.401351536    20.846447261     1.696068073
 C      -10.446557406    20.158064237     1.066317737
 C      -10.570426744    18.783281850     1.285145273
 C       -9.672942471    18.109720097     2.112873810
 C      -11.359069213    20.902406567     0.204719812
 C      -12.395745168    20.363536376    -0.459108583
 C      -13.308294533    21.107849334    -1.320728317
 C      -13.185580510    22.482264207    -1.540348669
 C      -14.080817877    23.154334270    -2.372398315
 C      -15.124370996    22.465627631    -2.998499196
 C      -15.250029907    21.087088069    -2.779292496
 C      -14.351384438    20.417945678    -1.953126782
Si      -16.313609921    23.338962757    -4.099257550
 C      -16.203690967    25.190024163    -3.896412296
 C      -15.937151203    22.896949322    -5.912064901
 C      -18.070614058    22.735494662    -3.683890312
 C       -7.283979531    16.108155767     3.315988362
 C       -8.095626070    17.990670751     5.621141292
 C       -5.073000089    12.712789213    -1.232335328
 C       -4.929184178    12.721954202     1.868153329
 C       -0.654313965    -0.907594038    -1.540284753
 C       -0.620836880    -0.917934337     1.547394459
 H        1.178173422     2.680470276     0.638696764
 H        0.257775820     4.926877167     0.629241877
 H       -3.566213177     3.401399561    -0.624779368
 H       -2.686157921     1.134477437    -0.632415039
 H       -3.358896202     5.704898928    -0.308011346
 H       -0.590917547     6.759783993     0.591876524
 H       -4.207350973     7.544048441    -0.341751478
 H       -5.122378882     9.794182833    -0.347964314
 H       -1.245906727    11.334770935     0.896947939
 H       -0.378109429     9.059000610     0.909745071
 H       -1.865858424    13.452700808    -0.658689746
 H       -3.055655040    14.999056112     1.780732252
 H       -1.891640039    16.900289498     2.472187862
 H       -0.036881912    18.473940719     2.298917634
 H        1.479279409    16.278109367    -1.111574237
 H       -0.328306464    14.664254382    -0.860881847
 H        3.358115692    19.292965262    -0.878721920
 H        1.895374217    18.678680550    -1.702248046
 H        3.132568366    17.545391546    -1.061423142
 H        1.775233519    22.050745328     3.497017539
 H        1.002374924    20.486880396     3.891308205
 H        0.390103217    22.015062786     4.603592976
 H       -1.967255532    21.766517977     0.635063336
 H       -4.158518614    20.680989101     0.726818338
 H       -3.386640351    19.429952677     4.771975734
 H       -1.177742406    20.454443588     4.683620043
 H       -5.802853218    19.479233615     1.816194189
 H       -5.216721348    18.595153371     4.753412864
 H       -7.713433650    20.768610789     2.998315098
 H       -9.286983528    21.917437682     1.538998822
 H      -11.374103061    18.224943409     0.809088006
 H       -9.822345742    17.034821622     2.246653245
 H      -11.143002313    21.971972422     0.125388815
 H      -12.612058843    19.294167259    -0.379744627
 H      -12.384674029    23.042540490    -1.061256611
 H      -13.933122404    24.229531525    -2.506312222
 H      -16.046304646    20.496922976    -3.241537391
 H      -14.464217716    19.346870446    -1.796511942
 H        1.618255753    19.567823203     2.175141803
 H        2.797665902    20.249645876     1.039022438
 H        0.958977733    20.850062379    -0.578764530
 H       -0.242497922    20.056160375     0.434992737
 H        1.502502895    22.441967018     1.393017040
 H       -0.100230061    22.635567640     0.657644171
 H        2.263368510    -1.029739009    -0.038444509
 H        2.275880138     0.481298632     0.904811304
 H        2.260139560     0.541613516    -0.878884764
 H      -16.947045963    25.704644533    -4.531131574
 H      -15.206655177    25.574265849    -4.174210645
 H      -16.399860293    25.485744029    -2.849695554
 H      -16.662231942    23.501446690    -6.530144129
 C      -14.508875227    23.290414601    -6.331466880
 C      -16.155534504    21.409427207    -6.241628432
 H      -18.070642777    21.624117309    -3.882043781
 C      -18.432764202    22.949310930    -2.203044561
 C      -19.161925515    23.370552949    -4.563833699
 H       -8.308980328    15.659599500     3.464308859
 C       -6.903907129    15.950264434     1.833468248
 C       -6.289059357    15.312732876     4.178614987
 H       -7.345859806    17.431505799     6.251551097
 C       -8.190608806    19.431104801     6.155489012
 C       -9.463525393    17.305932265     5.785133497
 H       -5.946758715    12.016279708    -1.077401850
 C       -5.619068447    14.146389020    -1.348663419
 C       -4.389794704    12.328993627    -2.557403528
 H       -5.170775827    13.825495979     1.908290827
 C       -6.254293555    11.941148848     1.900762054
 C       -4.110674738    12.366894705     3.123122201
 H       -1.778816183    -0.914512006    -1.441250675
 C       -0.301609074    -0.177736121    -2.849011875
 C       -0.182077816    -2.369173828    -1.638350064
 H       -0.142460456    -1.939086854     1.510193032
 C       -0.184071627    -0.233527003     2.855651194
 C       -2.148117922    -1.107396642     1.575975904
 H      -14.294735515    24.359187249    -6.202886229
 H      -14.356061074    23.073045374    -7.398329572
 H      -13.734866343    22.728241586    -5.789251886
 H      -17.182495665    21.068908749    -6.058585109
 H      -15.475640193    20.745346601    -5.689396991
 H      -15.958777317    21.228629421    -7.308515061
 H      -17.724126580    22.473349493    -1.510053916
 H      -19.416132730    22.507621614    -1.987641924
 H      -18.503230359    24.009742977    -1.926883307
 H      -19.009660034    23.199188973    -5.637281237
 H      -19.261074329    24.453074324    -4.408592273
 H      -20.141636492    22.934709689    -4.319438352
 H       -7.566984940    16.495292677     1.147427538
 H       -6.969402534    14.890786061     1.543175532
 H       -5.874695154    16.276372147     1.620857853
 H       -6.523442051    15.334214754     5.250031000
 H       -5.250885356    15.653100482     4.055784833
 H       -6.304351452    14.251734453     3.885437690
 H       -7.234940605    19.972110295     6.125159004
 H       -8.507279018    19.423072548     7.208052203
 H       -8.932625329    20.038006285     5.616687634
 H       -9.453693124    16.242197603     5.515777627
 H      -10.258505048    17.792125605     5.201552067
 H       -9.784182102    17.352826749     6.836023532
 H       -6.195657880    14.466718822    -0.470931870
 H       -6.300112618    14.222035704    -2.208073604
 H       -4.828693021    14.892707689    -1.516365515
 H       -4.008627663    11.298210305    -2.569285510
 H       -3.554929351    12.994307573    -2.817046676
 H       -5.108552709    12.399135884    -3.386049879
 H       -6.942926165    12.218276462     1.092442462
 H       -6.788600677    12.142506598     2.840686914
 H       -6.110445118    10.852225621     1.861523516
 H       -3.165887922    12.923081619     3.201299941
 H       -3.866846654    11.296361070     3.184149299
 H       -4.683939096    12.602586939     4.030490105
 H       -0.656012040     0.862761853    -2.874726129
 H       -0.774154384    -0.684105082    -3.702626873
 H        0.776703773    -0.164499917    -3.055947518
 H       -0.461987336    -2.976070644    -0.767644232
 H        0.903668095    -2.460288042    -1.774660941
 H       -0.642510799    -2.854285898    -2.511329213
 H        0.904436771    -0.132078296     2.952938667
 H       -0.515496233    -0.826832759     3.719915191
 H       -0.624518996     0.766039527     2.982088064
 H       -2.533119932    -1.673283146     0.718310371
 H       -2.695517705    -0.155378289     1.625515499
 H       -2.439486640    -1.674259698     2.472233759

