187   

Si        0.000000000     0.000000000     0.000000000
 C        1.865086050     0.000000000     0.000000000
 C       -0.679956727     1.710789653     0.000000000
 C        0.118729389     2.804924168     0.347492967
 C       -0.407174160     4.096794114     0.343986553
 C       -1.741949309     4.323841010    -0.001061765
 C       -2.542239461     3.226014484    -0.344693655
 C       -2.020119277     1.935593007    -0.342888617
 C       -2.335494027     5.656693039    -0.018807132
 C       -1.681808332     6.790251275     0.287281599
 C       -2.276620435     8.122552034     0.269124138
 C       -3.611985603     8.346865622    -0.076388827
 C       -4.140416438     9.637540286    -0.080727571
 C       -3.345879285    10.731245642     0.275948461
 C       -2.006742521    10.509554715     0.625492324
 C       -1.479402501     9.221341778     0.616818941
Si       -4.009177238    12.446867463     0.281527229
 C       -3.264575397    13.442483001     1.623726695
 C       -2.843627409    12.926787461     2.786252917
 C       -2.246300819    13.712588092     3.867803648
 C       -1.846156735    13.048380659     5.038009313
 C       -1.275908961    13.743619045     6.091095295
 C       -1.051733323    15.131380351     5.984576264
 C       -1.451617756    15.799049849     4.817986692
 C       -2.060497880    15.094058805     3.784744203
 N       -0.464347082    15.780035976     7.100827876
 C        0.894202800    15.315305354     7.447797239
 C       -0.619291079    17.241650622     7.152527689
 C        2.059889893    15.983088905     6.697310857
 C        2.122106781    15.664772696     5.191656448
 N        2.629150568    14.328037350     4.841555337
 C        3.832657917    13.910984710     5.424930220
 C        4.868548019    14.850698180     5.627408370
 C        6.065905926    14.459804641     6.202258374
 C        6.300313257    13.122171806     6.554128684
 C        5.285713984    12.189158590     6.325372215
 C        4.072180126    12.565214743     5.764522369
 C        1.589120936    13.314414254     4.626817771
 C        7.584249160    12.765880099     7.158613958
 C        7.922158765    11.525019348     7.535397697
Si        9.527864105    11.084761816     8.290363504
 C       10.881757921    12.185740401     7.707765430
 C       10.854058423    12.683495620     6.399609568
 C       11.869552351    13.519043046     5.937881980
 C       12.940897035    13.866100631     6.766181407
 C       12.971037295    13.359913898     8.072008572
 C       11.955731303    12.527816502     8.537848120
 C       14.025196145    14.737254270     6.324872696
 C       14.114195374    15.286438081     5.101576069
 C       15.197174371    16.157759329     4.657752406
 C       16.267973377    16.510575159     5.483097400
 C       17.282321468    17.346955064     5.017011519
 C       17.243682192    17.854357638     3.714551605
 C       16.170409070    17.502358602     2.884862010
 C       15.162555137    16.662937552     3.350934609
Si       18.574230019    18.959299017     3.083982248
 C       19.663014287    19.580464469     4.465524448
 C       19.651682694    18.006344969     1.837262461
 C       17.756001323    20.422353154     2.181959397
 C        9.365866368    11.183550729    10.183518770
 C        9.946720607     9.293224498     7.806371168
 C       -3.590867815    13.270859530    -1.380823544
 C       -5.898213431    12.430649404     0.499163694
 C       -0.652353127    -0.907560431    -1.541317210
 C       -0.618964928    -0.920315752     1.546796376
 H        1.170095338     2.690075616     0.625502105
 H        0.236574517     4.931701680     0.614865196
 H       -3.584707540     3.380788196    -0.616444268
 H       -2.692539990     1.118770043    -0.619871145
 H       -3.390144745     5.683517349    -0.308406742
 H       -0.627046204     6.763843298     0.576250465
 H       -4.253020432     7.510939961    -0.350001558
 H       -5.189413596     9.750494971    -0.367594914
 H       -1.338317794    11.329188449     0.911341350
 H       -0.435974113     9.068623240     0.886565325
 H       -3.198919957    14.521202620     1.417374926
 H       -2.908249607    11.853548539     3.017547432
 H       -2.001697959    11.972242131     5.127705843
 H       -1.011030149    13.226939798     7.011754222
 H       -1.298306075    16.868716397     4.712353897
 H       -2.379202554    15.634037808     2.892358310
 H       -0.267222666    17.602523018     8.134940470
 H       -1.692960743    17.492406486     7.079923659
 H       -0.076852994    17.787917156     6.365367773
 H        0.726296655    13.762603445     4.099201835
 H        1.215578658    12.857642704     5.557814324
 H        1.985586153    12.519235159     3.968996259
 H        4.729203241    15.885416783     5.329152721
 H        6.845534261    15.204727192     6.368456186
 H        5.442535776    11.142300635     6.589439857
 H        3.309185508    11.809823235     5.609374851
 H        8.262001247    13.624702606     7.269777249
 H        7.223167655    10.683212313     7.421287881
 H       10.042516396    12.442423065     5.704100640
 H       11.821670706    13.898596931     4.918766767
 H       13.796485760    13.617192092     8.732748298
 H       12.033905655    12.162805988     9.565345980
 H       14.795615037    14.926954907     7.077815102
 H       13.343406393    15.095865474     4.348840292
 H       16.319665838    16.132003132     6.502246651
 H       18.094606148    17.586696201     5.708741587
 H       16.087136734    17.869030345     1.857807364
 H       14.338140583    16.399234174     2.691102550
 H        1.016733165    15.495652049     8.543254460
 H        0.948128022    14.212110760     7.311152489
 H        2.016397527    17.080276161     6.830429217
 H        3.009380858    15.671173970     7.182610205
 H        1.116442665    15.798740413     4.731553093
 H        2.783902254    16.409505239     4.686218351
 H        2.262742130    -1.029709150    -0.044821955
 H        2.275826237     0.475572611     0.907767463
 H        2.260408083     0.546803010    -0.875477024
 H       20.430759181    20.277415978     4.084594175
 H       20.188065384    18.754065635     4.975805409
 H       19.069578382    20.122982130     5.223769351
 H       20.476627730    18.717358691     1.542010000
 C       20.299464402    16.753291424     2.454628479
 C       18.899401456    17.593119859     0.559716304
 H       17.159234686    19.969744761     1.337294361
 C       16.779779814    21.199205320     3.083857252
 C       18.765954641    21.408736787     1.569004877
 H       10.361778716    10.857319857    10.601122582
 C        9.087419848    12.616783019    10.671261585
 C        8.284462682    10.245534365    10.749058103
 H        9.097160277     8.659267311     8.192263625
 C       10.028216166     9.105771224     6.280714550
 C       11.251439750     8.783983055     8.443333075
 H       -4.024097545    14.311367030    -1.331821140
 C       -2.072935297    13.394920646    -1.604031494
 C       -4.216438623    12.548183727    -2.586274078
 H       -6.307228920    11.838673091    -0.370115172
 C       -6.330932406    11.732695207     1.800973360
 C       -6.526698100    13.834858856     0.453781180
 H       -1.776908957    -0.915637936    -1.443314361
 C       -0.298908106    -0.176486567    -2.849144005
 C       -0.178614616    -2.368580492    -1.639707489
 H       -0.133549793    -1.938289442     1.511582266
 C       -0.189705710    -0.231743885     2.855350788
 C       -2.144906966    -1.120348574     1.572290959
 H       20.926164435    16.971368890     3.328915799
 H       20.956816824    16.267803469     1.719109940
 H       19.561658497    15.995267755     2.754878973
 H       18.474282575    18.442158314     0.009769323
 H       18.088978049    16.876681973     0.754850343
 H       19.588415023    17.092171095    -0.135964896
 H       15.991934642    20.566127563     3.516734302
 H       16.263766297    21.975134682     2.500647432
 H       17.280445060    21.717051440     3.912658253
 H       19.454949137    20.938378836     0.855623653
 H       19.369915220    21.928306678     2.324689726
 H       18.233249796    22.192039230     1.010299711
 H        9.850077506    13.342024315    10.355232643
 H        9.070649124    12.645876549    11.769636299
 H        8.111634545    12.998576961    10.337215409
 H        8.456384210     9.188246952    10.510635144
 H        7.272533438    10.506356401    10.408644498
 H        8.265535255    10.312873505    11.846361866
 H        9.107811702     9.396027737     5.755681579
 H       10.200476099     8.047428496     6.039301993
 H       10.859586500     9.663511519     5.825807131
 H       11.235171110     8.797604741     9.540508473
 H       12.136509412     9.347460990     8.114573802
 H       11.429321826     7.738644327     8.152173883
 H       -1.558028634    13.951599520    -0.809251314
 H       -1.872551711    13.936756273    -2.539388074
 H       -1.574835136    12.419462104    -1.702910090
 H       -5.312283914    12.502879897    -2.547077143
 H       -3.843376229    11.521376985    -2.711244891
 H       -3.964688591    13.079390515    -3.515777881
 H       -5.967696790    10.699096500     1.885623550
 H       -7.427470122    11.678766746     1.854190921
 H       -6.004828931    12.271059388     2.702861413
 H       -6.328831678    14.371572467    -0.482779700
 H       -6.200518596    14.476380646     1.284361279
 H       -7.620671185    13.759001962     0.537281345
 H       -0.655909000     0.863060382    -2.875421134
 H       -0.768516313    -0.683910477    -3.703807589
 H        0.779777747    -0.160575622    -3.054131088
 H       -0.458621687    -2.976273040    -0.769582619
 H        0.907334952    -2.458633739    -1.775296674
 H       -0.637887959    -2.853674586    -2.513355468
 H        0.897836697    -0.121874186     2.954550642
 H       -0.518000959    -0.827178625     3.719393774
 H       -0.638051807     0.764386181     2.980505294
 H       -2.524370516    -1.688231329     0.713442389
 H       -2.699065191    -0.172341112     1.621810832
 H       -2.433883638    -1.690176830     2.467499796

