187   

Si        0.000000000     0.000000000     0.000000000
 C        1.865462776     0.000000000     0.000000000
 C       -0.676644536     1.711566147     0.000000000
 C        0.113901213     2.796404236    -0.392737395
 C       -0.405892654     4.090195314    -0.390060666
 C       -1.727799115     4.328896480    -0.003153570
 C       -2.519941457     3.240488148     0.384287511
 C       -2.003197188     1.947564050     0.384610077
 C       -2.309982612     5.667061200     0.013660063
 C       -1.644094329     6.780314715    -0.334879795
 C       -2.195229987     8.129579926    -0.329234495
 C       -1.356062403     9.177640226    -0.724268280
 C       -1.813029321    10.490514597    -0.743770366
 C       -3.118651134    10.792041307    -0.339417264
 C       -3.959527612     9.748272222     0.060996217
 C       -3.503999993     8.429195464     0.057187141
Si       -3.690550364    12.537910559    -0.377533955
 C       -5.014550113    12.909600425     0.822194871
 C       -5.173894858    12.293709972     2.001395654
 C       -6.245452587    12.610476607     2.947399472
 C       -6.320247125    11.903418586     4.155611904
 C       -7.317232171    12.169308557     5.080943609
 C       -8.254665857    13.198077434     4.847833145
 C       -8.179593715    13.908027255     3.634788109
 C       -7.203607378    13.596250436     2.697126887
 N       -9.266086939    13.464384922     5.791425732
 C       -8.953915814    13.197075082     7.205667094
 C      -10.038831622    14.704126013     5.605352811
 C       -7.829850337    14.086119706     7.764744150
 C       -7.461929726    13.628751007     9.186297630
 N       -6.318664319    14.333375849     9.780862605
 C       -5.020593561    14.003204269     9.339980988
 C       -4.774864226    13.012727571     8.370964011
 C       -3.475360909    12.728496425     7.973784064
 C       -2.379376601    13.371474306     8.563166151
 C       -2.624951043    14.335120461     9.547272289
 C       -3.918657546    14.650931122     9.934547423
 C       -6.570230530    15.767524286    10.008960139
 C       -1.028979111    13.035832257     8.108250534
 C        0.089725245    13.586812811     8.599552763
Si        1.768985824    13.156088410     8.019878221
 C        1.733250997    12.655675968     6.249702025
 C        1.297914205    13.581598815     5.290929897
 C        1.257900533    13.237473413     3.943242852
 C        1.658573383    11.964172766     3.516594120
 C        2.091351612    11.043096830     4.473289192
 C        2.124417819    11.382698549     5.825747296
 C        1.599240658    11.649047991     2.093917485
 C        1.945902918    10.466435274     1.558738788
 C        1.885316013    10.154734619     0.135498366
 C        1.451391799    11.080244744    -0.817892157
 C        1.408194005    10.742739314    -2.169909448
 C        1.777282497     9.461003148    -2.594040548
 C        2.200001732     8.527713659    -1.639163064
 C        2.251489832     8.871375241    -0.290632914
Si        1.713220116     9.035415184    -4.383645178
 C        2.128081209    10.509536077    -5.446350873
 C        2.896567738     7.592534462    -4.749313060
 C       -0.066480587     8.460910766    -4.757183455
 C        2.922447932    14.649828032     8.261078152
 C        2.425576060    11.731441898     9.104124398
 C       -2.214242982    13.676302970     0.021527088
 C       -4.305676660    12.923491943    -2.134845542
 C       -0.621015009    -0.911876238    -1.551179752
 C       -0.653707257    -0.914489168     1.536379250
 H        1.154144225     2.671969619    -0.705530181
 H        0.232520520     4.917879346    -0.695784980
 H       -3.551856230     3.404109264     0.689043784
 H       -2.668968993     1.138249474     0.697006513
 H       -3.353344156     5.715230304     0.334075506
 H       -0.595939649     6.722106504    -0.650108053
 H       -0.327243047     8.965100265    -1.020632833
 H       -1.109786666    11.260678477    -1.075695405
 H       -4.989628925     9.927693971     0.383297233
 H       -4.177275072     7.632420526     0.365633085
 H       -5.693375273    13.717350854     0.507106385
 H       -4.507228327    11.492349911     2.350261859
 H       -5.586968380    11.124288351     4.371073834
 H       -7.364205724    11.579704819     5.991883419
 H       -8.885388800    14.700166661     3.408791154
 H       -7.180798634    14.150567626     1.757650656
 H      -10.774762436    14.817682797     6.418368796
 H      -10.614131517    14.632890823     4.664004983
 H       -9.413307311    15.611135118     5.574369874
 H       -7.634802077    15.939994599    10.234691046
 H       -6.288335591    16.396875109     9.148988349
 H       -5.996627994    16.101348325    10.892295549
 H       -5.594855044    12.478451755     7.899991041
 H       -3.309623247    11.983374948     7.193502327
 H       -1.789570393    14.849886316    10.023440568
 H       -4.076714295    15.396493327    10.707951260
 H       -1.018511738    12.290246524     7.299903019
 H        0.056001259    14.328445298     9.410852547
 H        0.962668598    14.587200467     5.565866968
 H        0.910869825    13.968037909     3.214899786
 H        2.404203784    10.045810389     4.169966615
 H        2.473914812    10.618135740     6.524975043
 H        1.243124172    12.465619335     1.458052903
 H        2.299030924     9.648488039     2.193036213
 H        1.156559663    12.082594364    -0.510229403
 H        1.074460377    11.512293729    -2.871961590
 H        2.498271550     7.512069409    -1.913102536
 H        2.581581253     8.133096278     0.438063043
 H       -9.885846478    13.331265592     7.799955236
 H       -8.690357011    12.118627912     7.307734614
 H       -6.941575930    14.042554784     7.101771267
 H       -8.138257874    15.145806326     7.764563754
 H       -8.331940191    13.771805670     9.869451213
 H       -7.245614838    12.534897617     9.203958970
 H        2.263379245    -1.029326617     0.049008923
 H        2.260136112     0.550733702     0.873220579
 H        2.275815015     0.472108903    -0.909509886
 H        2.126844478    10.240629826    -6.517651569
 H        3.132838723    10.900748203    -5.203994665
 H        1.406304063    11.333506550    -5.309782440
 H        2.571517157     6.742661501    -4.080451489
 C        2.821949049     7.094933055    -6.204170378
 C        4.360880617     7.927479986    -4.411735153
 H       -0.093088844     8.252511174    -5.864950436
 C       -0.457934385     7.170895098    -4.014980187
 C       -1.119672081     9.540524299    -4.447205172
 H        2.952281944    14.830408266     9.375298645
 C        4.358861373    14.375290072     7.781533569
 C        2.412929194    15.938908757     7.592501315
 H        3.369900263    11.372010010     8.602522138
 C        2.787960234    12.165514154    10.536177725
 C        1.440416790    10.551072058     9.187299563
 H       -1.439852612    13.481363806    -0.774719291
 C       -2.573230609    15.172009143    -0.023100591
 C       -1.591067564    13.351865674     1.390444288
 H       -4.626754813    14.004367944    -2.126091783
 C       -3.213626785    12.757729062    -3.207014249
 C       -5.523127667    12.066152289    -2.524625023
 H       -0.143753422    -1.933602956    -1.518801063
 C       -2.148552622    -1.099031291    -1.579622413
 C       -0.183937138    -0.222089036    -2.856625191
 H       -1.778165822    -0.923516020     1.436372241
 C       -0.178959825    -2.375636788     1.629376481
 C       -0.303363654    -0.188672471     2.848007076
 H        1.818038888     6.761065127    -6.497856256
 H        3.484644752     6.227698389    -6.338865386
 H        3.150760335     7.847289584    -6.933113580
 H        4.506833274     8.250897170    -3.371644743
 H        4.781920598     8.707072911    -5.060852298
 H        4.992788697     7.038465259    -4.549165604
 H        0.197733725     6.319644382    -4.234416951
 H       -1.471444319     6.860331657    -4.310506463
 H       -0.492051341     7.300135991    -2.923056430
 H       -0.957931515    10.480171049    -4.988481482
 H       -1.187095982     9.774825179    -3.372836433
 H       -2.118591487     9.184290206    -4.738857501
 H        4.831100020    13.520720188     8.283289169
 H        4.998254712    15.245446268     7.988410132
 H        4.422037448    14.199131002     6.698050295
 H        1.379046987    16.194342362     7.861187242
 H        2.475134974    15.902006065     6.496098463
 H        3.032122970    16.792408331     7.903904595
 H        3.577562241    12.926672559    10.573598365
 H        3.168546870    11.303857313    11.103823497
 H        1.925532623    12.546198694    11.100153847
 H        1.139200531    10.153259103     8.209119047
 H        0.518719277    10.807355090     9.730852903
 H        1.898665058     9.714237202     9.732498912
 H       -2.961816847    15.499221861    -0.995243386
 H       -1.677399316    15.779569304     0.169810472
 H       -3.307351981    15.457841899     0.743375347
 H       -1.243105357    12.311408329     1.476395837
 H       -2.279052886    13.533811308     2.229669012
 H       -0.715567783    13.991112802     1.568464218
 H       -2.349469095    13.416254890    -3.052426418
 H       -3.618567671    13.009755704    -4.197429609
 H       -2.841256813    11.724998479    -3.282418040
 H       -6.371918343    12.174741158    -1.835738977
 H       -5.286340252    10.994244428    -2.591569994
 H       -5.891910617    12.361923231    -3.516691824
 H       -2.532146209    -1.676829230    -0.729205132
 H       -2.442441732    -1.652500660    -2.483346973
 H       -2.695313520    -0.145926563    -1.613974367
 H        0.904707116    -0.124122128    -2.954976101
 H       -0.621221657     0.779565932    -2.977072378
 H       -0.518784890    -0.809705548    -3.723431722
 H       -0.455585930    -2.979215070     0.755341480
 H       -0.640834151    -2.865322356     2.499077398
 H        0.906590290    -2.465357945     1.767963422
 H       -0.661256847     0.850523382     2.877840497
 H        0.774885863    -0.172532819     3.054962656
 H       -0.774217007    -0.700247624     3.699516825

