187   

Si        0.000000000     0.000000000     0.000000000
 C        1.865287520     0.000000000     0.000000000
 C       -0.681030010     1.710171781     0.000000000
 C        0.133795576     2.813538482    -0.272103542
 C       -0.395217980     4.104214254    -0.268841330
 C       -1.749179094     4.320711906    -0.000424193
 C       -2.565258749     3.213611759     0.268650818
 C       -2.039767215     1.924643871     0.268934518
 C       -2.346704593     5.651772903     0.013940738
 C       -1.679288414     6.793748801    -0.223574013
 C       -2.279470157     8.123723923    -0.208555224
 C       -1.466713856     9.233439928    -0.474123108
 C       -1.995769445    10.521912934    -0.470666414
 C       -3.350738390    10.731569002    -0.188513595
 C       -4.164615625     9.624346127     0.078064516
 C       -3.634374938     8.335427261     0.062679978
Si       -4.077907857    12.420472928    -0.176505201
 C       -5.419747319    12.577699044     1.055978913
 C       -5.473066444    11.879569228     2.198165941
 C       -6.545578732    12.003013600     3.186724024
 C       -6.487254248    11.214302363     4.346648033
 C       -7.475191558    11.292348572     5.312602598
 C       -8.546365989    12.199906932     5.162920281
 C       -8.610745158    12.984754782     4.000090637
 C       -7.632311498    12.863177589     3.019154777
 N       -9.529102665    12.242925324     6.174142872
 C       -9.026971102    12.374702930     7.561403761
 C      -10.723646255    13.061186128     5.910835937
 C       -7.775905333    13.250906361     7.740192133
 C       -7.978866314    14.705489614     7.276055244
 N       -6.723268026    15.364753611     6.851023768
 C       -5.685297045    15.303212901     7.817934138
 C       -5.949213149    15.819451098     9.102690375
 C       -4.970992018    15.784018188    10.082936903
 C       -3.693342544    15.271123947     9.811274894
 C       -3.429899724    14.782787614     8.529481631
 C       -4.405403030    14.800428301     7.538738254
 C       -6.335124781    15.007442596     5.474561497
 C       -2.695059892    15.256517516    10.883309944
 C       -1.447598933    14.791674849    10.737578895
Si       -0.158679819    14.746059430    12.032730582
 C        1.396667322    15.482164962    11.382800066
 C        1.366247132    16.328430938    10.269460366
 C        2.543544293    16.888025428     9.774351587
 C        3.772340525    16.623737497    10.385481508
 C        3.798794799    15.780413652    11.504382398
 C        2.625876031    15.216108189    11.998987463
 C        5.028339152    17.187449324     9.901535669
 C        5.140343321    18.007145047     8.842526128
 C        6.395037445    18.571926163     8.356898174
 C        7.626034960    18.306660907     8.962247350
 C        8.801609011    18.868477406     8.464135724
 C        8.769997957    19.713600982     7.350554906
 C        7.536351187    19.981395593     6.741651224
 C        6.365523548    19.415397082     7.238017667
Si       10.311880556    20.463361318     6.680355361
 C       11.741979408    20.264384208     7.861516552
 C       10.760579391    19.625048233     5.031311462
 C        9.981914037    22.308986205     6.351122594
 C       -0.703247480    15.703085871    13.582782008
 C        0.152102622    12.930562380    12.510624173
 C       -2.740241335    13.712157857     0.227515793
 C       -4.792761965    12.793386893    -1.898709926
 C       -0.610116079    -0.924389099    -1.548158771
 C       -0.657006316    -0.903025912     1.541678787
 H        1.200101340     2.707020299    -0.489761748
 H        0.261138460     4.946426819    -0.480175860
 H       -3.622773994     3.360213184     0.480425928
 H       -2.724619326     1.100415359     0.487603442
 H       -3.417373922     5.669610237     0.238681541
 H       -0.609019212     6.776731205    -0.448695202
 H       -0.409371305     9.090435393    -0.688396723
 H       -1.314193154    11.347889835    -0.691133793
 H       -5.231713163     9.728871101     0.302644979
 H       -4.288791803     7.490314136     0.268812029
 H       -6.194323208    13.315861398     0.799237923
 H       -4.707135346    11.143004239     2.480869165
 H       -5.656814917    10.520038911     4.485760636
 H       -7.435635624    10.646814861     6.186941487
 H       -9.421245123    13.690513256     3.850301977
 H       -7.714319480    13.467412940     2.114576277
 H      -11.502467109    12.798571928     6.649430401
 H      -11.135862686    12.807750530     4.917780809
 H      -10.551621095    14.148152253     5.959609979
 H       -7.175121488    15.223429801     4.791446511
 H       -6.065337704    13.945988456     5.339063355
 H       -5.488419492    15.640128485     5.156821301
 H       -6.923946565    16.248310589     9.320928950
 H       -5.196038955    16.173984974    11.075407272
 H       -2.444973863    14.377610169     8.292559706
 H       -4.166584509    14.401391505     6.556593008
 H       -3.069027014    15.671650089    11.828056433
 H       -1.107110535    14.374287886     9.774531924
 H        0.432519715    16.575860178     9.753424311
 H        2.495546581    17.539062744     8.903294080
 H        4.745515702    15.562050173    11.994457999
 H        2.707524826    14.564406985    12.873060253
 H        5.912858479    16.892894653    10.473705324
 H        4.255104324    18.301581482     8.270926305
 H        7.677528054    17.654739958     9.832320177
 H        9.734256654    18.623557900     8.979805019
 H        7.450490472    20.634873927     5.868837594
 H        5.417138143    19.634056024     6.750823721
 H       -9.845578873    12.749515341     8.213211347
 H       -8.800269292    11.339076401     7.914599215
 H       -7.467609129    13.237620887     8.803784821
 H       -6.919353068    12.803390329     7.195143556
 H       -8.692792282    14.756194454     6.425300835
 H       -8.426987498    15.313968900     8.092042408
 H        2.262904370    -1.029629214     0.046330366
 H        2.261727428     0.548126782     0.874022937
 H        2.274705372     0.473785342    -0.909362063
 H       12.651810631    20.754186007     7.470863975
 H       11.984919442    19.201353516     8.034537480
 H       11.513418404    20.722442169     8.840994972
 H       11.739567710    20.086355274     4.711914528
 C       10.973928244    18.107442640     5.180433484
 C        9.731797911    19.870105820     3.913073270
 H        9.140746960    22.342987499     5.598969734
 C        9.515355396    23.058216656     7.612411925
 C       11.186644077    23.049829116     5.744166940
 H       -1.706721557    15.276419820    13.873576168
 C        0.251784190    15.527434790    14.777042124
 C       -0.881237252    17.207969392    13.310253551
 H        0.931336970    12.952511233    13.326389162
 C       -1.100885057    12.232002780    13.067167807
 C        0.712190076    12.101373630    11.341252179
 H       -1.958751660    13.617955404    -0.580500840
 C       -3.268972632    15.157555040     0.210396940
 C       -2.063927551    13.445351496     1.584331434
 H       -5.210925423    13.839704112    -1.844241022
 C       -3.731851228    12.759558254    -3.012466147
 C       -5.940870252    11.838507156    -2.271919017
 H       -0.109049412    -1.934928314    -1.516296285
 C       -2.132584929    -1.148724729    -1.574172114
 C       -0.192708308    -0.225462120    -2.855103603
 H       -1.781732457    -0.902187538     1.444497527
 C       -0.193993645    -2.367474809     1.639675523
 C       -0.297402065    -0.174357002     2.849219312
 H       11.756684208    17.845458523     5.903860213
 H       11.286901670    17.674762814     4.219383113
 H       10.058020881    17.574365899     5.473734844
 H        9.578230532    20.932741469     3.686623985
 H        8.750560454    19.425657516     4.131554037
 H       10.076194460    19.404697892     2.977975490
 H        8.619485416    22.616963582     8.072462872
 H        9.251012437    24.094803773     7.359169163
 H       10.290277024    23.117539843     8.388099331
 H       11.533890295    22.613845500     4.798561299
 H       12.046422615    23.099632439     6.425395084
 H       10.912368901    24.090941752     5.519717627
 H        0.357812283    14.484330893    15.100848257
 H       -0.130303483    16.080543586    15.647467196
 H        1.258169275    15.924207018    14.582291392
 H       -1.581743099    17.427644357    12.492892293
 H        0.066774570    17.712330522    13.072848773
 H       -1.281032426    17.708951349    14.202961196
 H       -1.510669026    12.719702387    13.960957703
 H       -0.857325892    11.201679078    13.363357869
 H       -1.911742178    12.155756481    12.328602528
 H        1.636082068    12.517649093    10.915241744
 H       -0.006829605    11.979404843    10.519576316
 H        0.962771511    11.087459960    11.684239765
 H       -3.698471090    15.453235894    -0.755143224
 H       -2.446033720    15.860243502     0.406614397
 H       -4.024211756    15.345769162     0.986448454
 H       -1.607721480    12.448253298     1.656602993
 H       -2.753585484    13.555199756     2.434143240
 H       -1.251828989    14.167286311     1.749968446
 H       -2.920969654    13.484190350    -2.864648301
 H       -4.193083822    13.008640674    -3.979207239
 H       -3.275222619    11.767268971    -3.138827395
 H       -6.770214380    11.849844793    -1.551710875
 H       -5.610396549    10.795325533    -2.381268777
 H       -6.370778667    12.126594091    -3.241755822
 H       -2.504718719    -1.716451151    -0.712050850
 H       -2.410858052    -1.729246866    -2.465912047
 H       -2.701253237    -0.209911611    -1.631878388
 H        0.892894556    -0.098533038    -2.955173015
 H       -0.656003468     0.764316681    -2.976624738
 H       -0.512841602    -0.822930358    -3.720732324
 H       -0.476740956    -2.972318763     0.768454855
 H       -0.658314357    -2.850068736     2.512040451
 H        0.891057457    -2.465318465     1.776931648
 H       -0.648327263     0.867266856     2.875940828
 H        0.781520674    -0.165065860     3.053068258
 H       -0.769433306    -0.679067733     3.704189823

