187   

Si        0.000000000     0.000000000     0.000000000
 C        1.865407240     0.000000000     0.000000000
 C       -0.677073446     1.711760037     0.000000000
 C        0.135793115     2.810183372     0.297167770
 C       -0.388751218     4.102603397     0.293990206
 C       -1.736496886     4.326152485     0.000906601
 C       -2.550736554     3.224023504    -0.292750924
 C       -2.029651665     1.933183699    -0.292936997
 C       -2.328487560     5.659719317    -0.014181885
 C       -1.660589277     6.796517744     0.245830791
 C       -2.252380041     8.130187746     0.230798320
 C       -3.600424231     8.353266440    -0.062398032
 C       -4.124808221     9.645485364    -0.065556781
 C       -3.313328458    10.742698685     0.239939762
 C       -1.961557528    10.521924354     0.536257964
 C       -1.438320429     9.231915891     0.525955685
Si       -3.977409089    12.458421944     0.243632613
 C       -3.157228262    13.508302378     1.494717978
 C       -2.651418467    13.052363179     2.648883901
 C       -1.995278497    13.895599736     3.648587484
 C       -1.504689415    13.301394856     4.820724795
 C       -0.875877109    14.054543006     5.797852305
 C       -0.668430604    15.439745326     5.609546697
 C       -1.158341039    16.036680204     4.431155067
 C       -1.827522122    15.273105349     3.484075046
 N       -0.031096662    16.186146939     6.607532148
 C        1.041876876    15.540532489     7.379910751
 C        0.159634925    17.621951407     6.369096599
 C        2.138925869    14.845387698     6.551875298
 C        3.146355654    15.800098213     5.887191392
 N        4.027306348    16.564287067     6.794072279
 C        3.481371191    17.785770570     7.264560975
 C        3.189796436    18.771866418     6.299874238
 C        2.654971567    19.988237725     6.688840054
 C        2.432977406    20.278137735     8.044434604
 C        2.753075247    19.309624901     8.997948925
 C        3.281890867    18.079081318     8.621303118
 C        4.709224815    15.731702899     7.796126426
 C        1.865049001    21.580892860     8.395847966
 C        1.605482802    21.979763384     9.648132616
Si        0.894713180    23.615513001    10.058297950
 C       -0.187751936    24.219932214     8.699088696
 C       -0.953998132    23.299282035     7.973812703
 C       -1.783109608    23.727298193     6.938866601
 C       -1.875174895    25.083434466     6.612072510
 C       -1.113862626    26.003413370     7.344422205
 C       -0.281354295    25.578581209     8.377557790
 C       -2.730091815    25.575374646     5.536721656
 C       -3.506712005    24.798289427     4.762876266
 C       -4.362839337    25.286070274     3.686808343
 C       -4.457174726    26.639404662     3.352675238
 C       -5.289019919    27.061634238     2.315705801
 C       -6.040331448    26.136253140     1.584681924
 C       -5.946837292    24.777965304     1.917443650
 C       -5.120571222    24.360272421     2.956946440
Si       -7.142899107    26.677159986     0.213180037
 C       -6.797173442    28.439531995    -0.290785441
 C       -6.877070348    25.506726790    -1.264381311
 C       -8.958257250    26.543916016     0.769678608
 C       -0.143513456    23.443078336    11.642053272
 C        2.309800263    24.843546555    10.381689461
 C       -3.681877873    13.228256902    -1.471072637
 C       -5.848600668    12.439083550     0.588442208
 C       -0.655749580    -0.902887542    -1.542341537
 C       -0.614650955    -0.923545694     1.546647080
 H        1.197322446     2.698395348     0.534615133
 H        0.266351254     4.940809123     0.524327194
 H       -3.603328146     3.376014197    -0.524020494
 H       -2.712928610     1.113164222    -0.531210444
 H       -3.394160245     5.684407461    -0.259943563
 H       -0.594813000     6.771952211     0.491394724
 H       -4.254553433     7.515202096    -0.294872987
 H       -5.184738969     9.757165481    -0.309461483
 H       -1.280325344    11.344106716     0.781105464
 H       -0.385125140     9.080149373     0.754296663
 H       -3.120165125    14.577932573     1.239014956
 H       -2.684692539    11.990786759     2.933066515
 H       -1.632534033    12.228936515     4.974623269
 H       -0.546911269    13.574949847     6.714675543
 H       -1.021913648    17.097315329     4.248561857
 H       -2.211405769    15.762535853     2.587773632
 H        0.616163104    18.098156917     7.257061597
 H       -0.826083932    18.101191940     6.223350610
 H        0.799850102    17.844980656     5.499773231
 H        5.226866276    14.904769061     7.278926479
 H        4.045643277    15.302737969     8.562899205
 H        5.485230462    16.336408317     8.299288040
 H        3.397485529    18.572796888     5.250117738
 H        2.422492578    20.738399776     5.931393360
 H        2.592113960    19.513979605    10.057125445
 H        3.523100730    17.348054312     9.386911150
 H        1.660982866    22.211955772     7.518167689
 H        1.826970268    21.338124244    10.513553130
 H       -0.926992314    22.224868329     8.187165912
 H       -2.364420125    22.991398864     6.386137365
 H       -1.171770726    27.063826737     7.106614238
 H        0.287685195    26.342292201     8.914485530
 H       -2.702825188    26.658791916     5.388897961
 H       -3.533832239    23.714706922     4.912415232
 H       -3.879462735    27.379475751     3.903458127
 H       -5.322051814    28.133517460     2.101709115
 H       -6.510338516    24.009483918     1.380702436
 H       -5.063066431    23.301372478     3.202080691
 H        1.498957814    16.296007599     8.059344812
 H        0.557598047    14.789019079     8.050090678
 H        2.671998084    14.122846253     7.197756540
 H        1.669044470    14.229303401     5.755683637
 H        3.820174276    15.209708387     5.220186712
 H        2.602192031    16.508721905     5.223411979
 H        2.263321702    -1.029760168    -0.039419187
 H        2.275332712     0.480256181     0.905664495
 H        2.260840806     0.542241588    -0.878161884
 H       -7.434203155    28.742312868    -1.141033737
 H       -5.744732817    28.562516441    -0.604885041
 H       -6.987589091    29.146796297     0.535362284
 H       -7.152318387    24.475855022    -0.895659718
 C       -7.773844575    25.829542001    -2.472696616
 C       -5.409154979    25.464693129    -1.726235030
 H       -9.570541596    26.938250418    -0.092264247
 C       -9.411843496    25.100889171     1.054214654
 C       -9.261927022    27.409386025     2.006349205
 H        0.564144103    23.079375302    12.441909353
 C       -0.752879089    24.775426120    12.111598827
 C       -1.268797966    22.403730953    11.490996140
 H        1.818335841    25.820050635    10.661440127
 C        3.224105094    24.422489902    11.546083680
 C        3.173732847    25.082183607     9.130334895
 H       -4.112041729    14.270016584    -1.423735595
 C       -2.184155695    13.344515452    -1.807051017
 C       -4.391363303    12.468693931    -2.605402017
 H       -6.313124626    11.826139620    -0.236824483
 C       -6.187267726    11.769817353     1.932514170
 C       -6.485642203    13.839872521     0.554371611
 H       -1.780583692    -0.901343097    -1.446722547
 C       -0.293851252    -0.174678725    -2.849506332
 C       -0.193629042    -2.367652100    -1.639641074
 H       -0.123246623    -1.938677934     1.510974183
 C       -0.188664655    -0.232673344     2.855104685
 C       -2.139204353    -1.133562176     1.573789743
 H       -8.845712885    25.808114122    -2.236995981
 H       -7.618892643    25.082599263    -3.264923047
 H       -7.549930286    26.805272321    -2.923902546
 H       -4.709743779    25.186774475    -0.924752888
 H       -5.064840907    26.417486428    -2.149786024
 H       -5.284126443    24.711537507    -2.517219423
 H       -9.313959791    24.434521297     0.187930391
 H      -10.476573693    25.089811122     1.329923424
 H       -8.874296394    24.642312278     1.896187645
 H       -9.042349357    28.474559614     1.858551599
 H       -8.717894197    27.078655194     2.902862604
 H      -10.331055460    27.348230586     2.255660472
 H       -0.002059465    25.544984615    12.331982571
 H       -1.318303928    24.623248351    13.042533492
 H       -1.464477617    25.199445309    11.388490236
 H       -0.907112692    21.404969277    11.211246138
 H       -2.028412468    22.700749293    10.753333456
 H       -1.800684668    22.282610854    12.445482813
 H        2.692509703    24.310233365    12.499579337
 H        3.994688386    25.189010844    11.714075765
 H        3.763144634    23.485229337    11.349350177
 H        2.600656930    25.440967158     8.264182299
 H        3.722243936    24.183477935     8.812508046
 H        3.933159383    25.849684757     9.336283591
 H       -1.615450950    13.926479801    -1.068890853
 H       -2.052276919    13.855716590    -2.771102733
 H       -1.692489269    12.366269330    -1.908806040
 H       -5.481605700    12.427734885    -2.486908786
 H       -4.028457304    11.437465340    -2.722741451
 H       -4.205943996    12.968883644    -3.566970203
 H       -5.817615768    10.738181376     2.012813596
 H       -7.276935814    11.717969317     2.065188649
 H       -5.797406291    12.327431451     2.796852623
 H       -6.354351826    14.355500091    -0.405296239
 H       -6.105330167    14.500943492     1.345959291
 H       -7.570698035    13.762727925     0.714735367
 H       -0.643182924     0.867496347    -2.876492485
 H       -0.765629535    -0.678552614    -3.705067242
 H        0.785282444    -0.166903509    -3.052234975
 H       -0.481208986    -2.973167986    -0.770467527
 H        0.891944188    -2.466495150    -1.771881233
 H       -0.654195123    -2.848814452    -2.514776001
 H        0.898274091    -0.116754817     2.953881717
 H       -0.513458353    -0.829766883     3.719284533
 H       -0.642205189     0.761148896     2.980274837
 H       -2.516583058    -1.699664781     0.712873489
 H       -2.699209141    -0.189366627     1.629218464
 H       -2.422800065    -1.709519353     2.466792807

