187   

Si        0.000000000     0.000000000     0.000000000
 C        1.865184626     0.000000000     0.000000000
 C       -0.681755431     1.709889907     0.000000000
 C        0.122005494     2.809130349     0.318213937
 C       -0.407107416     4.099775897     0.314494989
 C       -1.750174413     4.320331647    -0.001161112
 C       -2.555379048     3.217338992    -0.315871779
 C       -2.029967502     1.928337486    -0.314551231
 C       -2.348042505     5.651189380    -0.018140934
 C       -1.691979832     6.790322725     0.261008421
 C       -2.294267036     8.119417827     0.242740619
 C       -1.494206850     9.226883394     0.554929362
 C       -2.025835733    10.513802254     0.550204211
 C       -3.375700211    10.721746158     0.240236711
 C       -4.176831249     9.618483695    -0.071730871
 C       -3.638801286     8.332096286    -0.073770951
Si       -4.086271666    12.417529887     0.231554337
 C       -5.907046319    12.324785942     0.364680406
 C       -6.785644200    12.951629612    -0.427881237
 C       -8.239116749    12.846363249    -0.281766360
 C       -9.061149142    13.551624297    -1.174830279
 C      -10.440467580    13.485553733    -1.079323118
 C      -11.045937629    12.726881363    -0.054868880
 C      -10.226928108    12.015147370     0.835877252
 C       -8.843140303    12.062797886     0.703299535
 N      -12.457636308    12.692093014    -0.001330952
 C      -13.129246625    14.012180142     0.012020985
 C      -13.057811586    11.721769697     0.928369028
 C      -12.398750799    15.131276055     0.771906169
 C      -12.193811610    14.813522007     2.264054559
 N      -11.124038024    15.616604368     2.886327821
 C      -11.283946811    17.015058768     2.851018772
 C      -12.572445834    17.574067049     2.993107369
 C      -12.748740805    18.947620619     2.960880389
 C      -11.655527591    19.817384803     2.838639090
 C      -10.377443397    19.262790064     2.730637693
 C      -10.184533418    17.887411710     2.743032605
 C       -9.777717563    15.095530124     2.591843513
 C      -11.898374179    21.260715372     2.809643001
 C      -10.932622181    22.181886863     2.696410989
Si      -11.177003916    23.992236839     2.654951969
 C      -10.273036091    24.709769458     1.222194774
 C       -9.880693512    23.895458571     0.152891920
 C       -9.196366808    24.438226581    -0.931909754
 C       -8.896431073    25.805793548    -0.979364124
 C       -9.295026761    26.616826553     0.087336223
 C       -9.977106530    26.076513384     1.176439443
 C       -8.177609737    26.326653470    -2.137513203
 C       -7.826096295    27.612749644    -2.305797488
 C       -7.107261429    28.132756756    -3.464301294
 C       -6.708794698    27.322435460    -4.530483118
 C       -6.023100850    27.861647281    -5.618910475
 C       -5.714501828    29.224879459    -5.660818513
 C       -6.112647648    30.039864404    -4.592299036
 C       -6.802418409    29.499894335    -3.510468431
Si       -4.810162021    29.951427128    -7.090155249
 C       -4.049592047    28.629544895    -8.164348839
 C       -6.015892517    30.979119339    -8.145256286
 C       -3.457778092    31.109606569    -6.416525821
 C      -13.021308376    24.434236772     2.514738352
 C      -10.490772594    24.733923136     4.267638770
 C       -3.428901107    13.392454223     1.727760791
 C       -3.555599409    13.310041787    -1.361144472
 C       -0.652845055    -0.905704921    -1.542164123
 C       -0.615691277    -0.923002057     1.546623554
 H        1.179672740     2.699232367     0.573124150
 H        0.240525500     4.938793394     0.562285037
 H       -3.604334481     3.367110512    -0.564696679
 H       -2.706390645     1.107426653    -0.568854684
 H       -3.409388583     5.671528577    -0.283409027
 H       -0.630967097     6.771570421     0.526070808
 H       -0.444502998     9.082530936     0.803130287
 H       -1.353933973    11.339723231     0.799300820
 H       -5.236868308     9.723394800    -0.325204926
 H       -4.281015559     7.489512639    -0.323758435
 H       -6.247759363    11.687839263     1.198546932
 H       -6.480527126    13.597727037    -1.261261532
 H       -8.608885895    14.154058454    -1.963590813
 H      -11.064451524    14.010263063    -1.799205494
 H      -10.659115702    11.417859509     1.632459543
 H       -8.226911714    11.486528239     1.395604097
 H      -14.139698924    11.648310298     0.718306391
 H      -12.924949767    11.966354364     1.993644794
 H      -12.631551716    10.720120655     0.737448415
 H       -9.780623839    13.991843820     2.638370398
 H       -9.074443670    15.449171378     3.366800075
 H       -9.397606189    15.383928185     1.597684195
 H      -13.435867285    16.928843383     3.125249098
 H      -13.755664170    19.356414704     3.048687914
 H       -9.508427584    19.916152765     2.635323107
 H       -9.174382513    17.499657687     2.654105309
 H      -12.962077951    21.520976366     2.887281315
 H       -9.872031781    21.886182623     2.630508310
 H      -10.092622738    22.821357049     0.133983226
 H       -8.895014959    23.789767372    -1.752329401
 H       -9.074438863    27.682444245     0.074772596
 H      -10.262202710    26.759400890     1.981490338
 H       -7.929398324    25.578235968    -2.895866735
 H       -8.074514999    28.361328738    -1.547801353
 H       -6.932633537    26.257291237    -4.520290344
 H       -5.738869671    27.177840980    -6.423476487
 H       -5.898767484    31.112207174    -4.570299709
 H       -7.105268756    30.149168245    -2.691164390
 H      -13.246410231    14.315479183    -1.057210032
 H      -14.159625432    13.894740103     0.412293852
 H      -11.416001369    15.332050610     0.298074177
 H      -12.962724295    16.078620877     0.663888156
 H      -13.135932559    14.975334150     2.833156671
 H      -11.936531678    13.739152254     2.404732658
 H        2.262819220    -1.029681208    -0.044878922
 H        2.275505001     0.475450752     0.908037908
 H        2.260730957     0.546845438    -0.875278973
 H       -3.472691712    29.074502155    -8.994732160
 H       -4.816631502    27.971098286    -8.608166375
 H       -3.356817082    27.995634905    -7.581518057
 H       -5.412625424    31.349012542    -9.024159139
 C       -7.186502160    30.139706022    -8.689051040
 C       -6.588098283    32.204767055    -7.410766465
 H       -3.997986310    31.904263236    -5.823994482
 C       -2.487381212    30.389645032    -5.462669047
 C       -2.647436152    31.813803013    -7.519298807
 H      -13.536045084    23.883576472     3.354685295
 C      -13.306777352    25.936850272     2.686831860
 C      -13.636786842    23.964676546     1.183700883
 H      -10.686434052    25.843492475     4.207743781
 C      -11.193571643    24.192833883     5.524907040
 C       -8.972475052    24.526844595     4.411732199
 H       -2.310924275    13.457985840     1.589955331
 C       -3.985476560    14.825093594     1.802875927
 C       -3.701526554    12.676943435     3.062821213
 H       -4.099835999    14.298674101    -1.358742941
 C       -2.045300743    13.599407392    -1.425044890
 C       -3.964614070    12.538828577    -2.629345782
 H       -1.777615417    -0.909668329    -1.446103619
 C       -0.294785189    -0.175885898    -2.849456908
 C       -0.183943122    -2.368314794    -1.639737680
 H       -0.123773534    -1.937885917     1.512471713
 C       -0.191985567    -0.230607735     2.854995792
 C       -2.140260322    -1.133109418     1.571663746
 H       -6.865120493    29.285702197    -9.298988820
 H       -7.823725891    30.757583146    -9.337902309
 H       -7.840557157    29.753367574    -7.894054281
 H       -5.817154507    32.901385871    -7.057948941
 H       -7.216073763    31.931670884    -6.550962097
 H       -7.233760215    32.780993442    -8.089521700
 H       -2.992208091    29.905835496    -4.614172392
 H       -1.780531986    31.111010961    -5.028396437
 H       -1.879582043    29.625413945    -5.964889284
 H       -3.267555412    32.409322407    -8.201681865
 H       -2.055689499    31.116762157    -8.127318311
 H       -1.928826812    32.513431146    -7.067903695
 H      -12.980777907    26.334581219     3.656265649
 H      -14.389269272    26.122090025     2.628786814
 H      -12.850030229    26.552099106     1.898859219
 H      -13.514674064    22.888852796     0.997781845
 H      -13.224463401    24.495891513     0.313578523
 H      -14.718457432    24.158662514     1.178379736
 H      -12.274560957    24.382527624     5.535320078
 H      -10.787080349    24.679892505     6.422757595
 H      -11.044256574    23.112665716     5.667090051
 H       -8.396100390    24.926896699     3.565628247
 H       -8.694234000    23.471000761     4.533947384
 H       -8.604459818    25.048117424     5.306885308
 H       -3.752834290    15.429144501     0.916357861
 H       -3.544781779    15.355332203     2.659364700
 H       -5.074728893    14.854412558     1.949719497
 H       -3.298005856    11.655067771     3.099863553
 H       -4.770796262    12.621188310     3.308529538
 H       -3.223644546    13.224406721     3.887870758
 H       -1.687257423    14.233138334    -0.603768692
 H       -1.805534003    14.138130763    -2.353564956
 H       -1.434365229    12.685697720    -1.437357444
 H       -5.040567506    12.325013889    -2.687345912
 H       -3.434673296    11.580831076    -2.734318095
 H       -3.717593388    13.126270167    -3.524868315
 H       -0.649260549     0.864529823    -2.876618553
 H       -0.764057570    -0.682257028    -3.704932508
 H        0.784292800    -0.162755276    -3.052320172
 H       -0.467611031    -2.975002140    -0.770089407
 H        0.901912045    -2.462128037    -1.773334817
 H       -0.643322684    -2.851816851    -2.514209115
 H        0.894760792    -0.114171443     2.955384913
 H       -0.517844471    -0.827011973     3.719272158
 H       -0.646193491     0.763092111     2.978610101
 H       -2.516786321    -1.698200390     0.709705250
 H       -2.700273732    -0.188913866     1.627372308
 H       -2.424915822    -1.710124049     2.463643155

