187   

Si        0.000000000     0.000000000     0.000000000
 C        1.865209087     0.000000000     0.000000000
 C       -0.671227293     1.714433050     0.000000000
 C        0.101178170     2.783521430    -0.465979581
 C       -0.409437154     4.081221181    -0.464983580
 C       -1.703532025     4.339790617    -0.005343619
 C       -2.478360672     3.266867041     0.454987654
 C       -1.971431026     1.970100909     0.455196064
 C       -2.278651459     5.680747993     0.013981968
 C       -1.643539850     6.791009211    -0.398222371
 C       -2.217312403     8.132486163    -0.379494146
 C       -1.439671788     9.203443000    -0.840689211
 C       -1.944094409    10.501038319    -0.842063648
 C       -3.243352982    10.757441313    -0.385252593
 C       -4.021124892     9.690776982     0.076347709
 C       -3.510559470     8.393001906     0.081409207
Si       -3.910098839    12.472189942    -0.387007720
 C       -5.725656003    12.435973915    -0.184884529
 C       -6.431666168    13.153508662     0.698764568
 C       -7.888412209    13.094063598     0.827505534
 C       -8.518050350    13.893835195     1.791466825
 C       -9.893819986    13.874831337     1.953915669
 C      -10.693059325    13.002327549     1.183825997
 C      -10.060182193    12.196080491     0.216870128
 C       -8.685799693    12.264914658     0.033467932
 N      -12.087525554    12.984357758     1.349779334
 C      -12.622927607    13.350215291     2.672518650
 C      -12.819681858    11.871923254     0.719891450
 C      -12.202443522    12.376040010     3.787551401
 C      -13.054063545    12.517288151     5.060135277
 N      -14.506915469    12.269201056     4.900490777
 C      -14.839790089    11.276288492     3.947799140
 C      -14.278002080     9.992968047     4.113694484
 C      -14.569197233     8.983857877     3.211813900
 C      -15.443801325     9.205617935     2.136543550
 C      -16.016965803    10.470426582     1.991563830
 C      -15.733438102    11.495116041     2.888383537
 C      -15.306101890    13.505097712     4.862176766
 C      -15.718754785     8.104694036     1.210588758
 C      -16.535058964     8.206634294     0.154242641
Si      -16.923139310     6.878334056    -1.039392670
 C      -16.690894845     7.528882023    -2.744039401
 C      -15.802306173     8.586342283    -2.968807699
 C      -15.614958864     9.090864669    -4.254782590
 C      -16.299742803     8.543783703    -5.343455070
 C      -17.183299271     7.480275777    -5.115795092
 C      -17.377100785     6.976657521    -3.831896615
 C      -16.134581258     9.039797649    -6.705835379
 C      -15.321839277    10.050325541    -7.058491188
 C      -15.156029162    10.546997910    -8.420495792
 C      -15.843079995    10.005147407    -9.509629898
 C      -15.654062055    10.511292414   -10.795631702
 C      -14.765993645    11.567694608   -11.020853302
 C      -14.074417691    12.112138071    -9.930002456
 C      -14.269720069    11.608795467    -8.647002618
Si      -14.504932498    12.247381355   -12.711743491
 C      -15.240744619    11.138507085   -14.018739084
 C      -15.318092375    13.963758319   -12.838428391
 C      -12.632200687    12.441793419   -12.992147402
 C      -15.795461119     5.368187076    -0.791956710
 C      -18.730148934     6.341662753    -0.787407643
 C       -3.085588311    13.469505235     1.006843061
 C       -3.503064099    13.294856468    -2.054418974
 C       -0.628180119    -0.909226086    -1.549496942
 C       -0.650928598    -0.916918146     1.536304117
 H        1.120223460     2.644083758    -0.837284070
 H        0.213762123     4.896124665    -0.828788664
 H       -3.489319708     3.445880135     0.816281999
 H       -2.623382152     1.173639254     0.824411638
 H       -3.300884954     5.734785567     0.399744772
 H       -0.621369718     6.736249042    -0.784174583
 H       -0.429690274     9.021478898    -1.202542178
 H       -1.292207201    11.296579690    -1.213400136
 H       -5.041078239     9.834469899     0.447913634
 H       -4.133778866     7.579525636     0.448114389
 H       -6.227701933    11.753157000    -0.890670824
 H       -5.964187840    13.848785172     1.408394332
 H       -7.918649168    14.554871560     2.418295292
 H      -10.349704439    14.535899027     2.684489451
 H      -10.637829658    11.519043065    -0.404538796
 H       -8.224509925    11.642839685    -0.735638874
 H      -13.890189478    11.912004482     0.990856015
 H      -12.441686226    10.877248302     1.009080154
 H      -12.760110341    11.976897557    -0.378594112
 H      -15.095817742    14.091815366     5.774190524
 H      -16.380148641    13.247330236     4.894122713
 H      -15.120586890    14.144432297     3.985456208
 H      -13.619701842     9.801155167     4.958150277
 H      -14.119844358     7.999551575     3.347829743
 H      -16.705131907    10.666398863     1.167423792
 H      -16.200322983    12.464757105     2.745049911
 H      -15.186772058     7.179324619     1.465889155
 H      -17.062073531     9.150492196    -0.067729425
 H      -15.234737081     9.051166507    -2.155587982
 H      -14.923459077     9.918208760    -4.404466663
 H      -17.725929431     7.040334933    -5.950309067
 H      -18.079216861     6.146952089    -3.714120738
 H      -16.735656281     8.520536140    -7.457926291
 H      -14.720211993    10.569300590    -6.306271204
 H      -16.536565105     9.179325468    -9.362044393
 H      -16.220947117    10.047369423   -11.607441903
 H      -13.366766478    12.938087399   -10.046021684
 H      -13.724553336    12.045653261    -7.812233210
 H      -12.302852708    14.387988367     2.914688369
 H      -13.733324635    13.390197869     2.586329172
 H      -12.256826840    11.334942197     3.408945892
 H      -11.134825690    12.530856879     4.039400806
 H      -12.693897596    11.782364909     5.820918414
 H      -12.900978879    13.523048749     5.507598000
 H        2.263342374    -1.028327577     0.065416896
 H        2.259351971     0.564739808     0.864647042
 H        2.276534422     0.457978614    -0.916353990
 H      -15.039195550    11.529549933   -15.032089255
 H      -16.335643302    11.047743473   -13.909371933
 H      -14.810481573    10.121959160   -13.964292708
 H      -15.175229925    14.289632005   -13.909279755
 C      -16.830017231    13.921939095   -12.549796550
 C      -14.671994989    15.023273663   -11.927998545
 H      -12.273155209    13.158720205   -12.197358956
 C      -11.869079446    11.117264712   -12.810371495
 C      -12.275904004    13.041999291   -14.363766926
 H      -15.901822993     5.074116526     0.292311704
 C      -16.201121870     4.160194593    -1.655004402
 C      -14.313998642     5.691647620    -1.059525475
 H      -18.914979603     5.513476947    -1.531444792
 C      -19.001315853     5.784961938     0.621208117
 C      -19.729185013     7.475170833    -1.080380636
 H       -3.610219632    14.468661531     1.022892349
 C       -3.267102073    12.808581773     2.385699249
 C       -1.585418483    13.725419508     0.776786627
 H       -2.377182419    13.315989417    -2.123960524
 C       -4.037417539    12.490882546    -3.253073703
 C       -4.014638925    14.742661071    -2.151838710
 H       -0.159507663    -1.934838192    -1.515802414
 C       -2.157455261    -1.083014632    -1.574536690
 C       -0.187434921    -0.225392298    -2.856606509
 H       -1.775872880    -0.920320909     1.442238241
 C       -0.183168738    -2.380891304     1.621104900
 C       -0.289566524    -0.198745936     2.849150061
 H      -17.383253883    13.247479733   -13.215844266
 H      -17.268344965    14.920296093   -12.691121761
 H      -17.059310109    13.629305773   -11.515002310
 H      -13.602216020    15.171803890   -12.122033280
 H      -14.793778592    14.798283807   -10.859060946
 H      -15.150925906    15.999887482   -12.090829940
 H      -12.030786728    10.654841731   -11.826047115
 H      -10.786703434    11.291184071   -12.893311266
 H      -12.120853110    10.368278105   -13.572752462
 H      -12.729930370    14.025821877   -14.539272030
 H      -12.555314238    12.390305661   -15.202146348
 H      -11.188368393    13.188115753   -14.438149590
 H      -17.216243880     3.797954711    -1.448322079
 H      -15.528049568     3.313368754    -1.456018396
 H      -16.128187098     4.360067954    -2.733526654
 H      -13.927289870     6.521402651    -0.452390737
 H      -14.115756974     5.935950101    -2.113375980
 H      -13.688880212     4.818706582    -0.824224042
 H      -18.385649078     4.911005281     0.870233741
 H      -20.047497774     5.456276476     0.701092931
 H      -18.853440519     6.532841795     1.413499044
 H      -19.622894751     7.900900594    -2.088167434
 H      -19.660421250     8.302964316    -0.361282565
 H      -20.758994333     7.095802065    -1.015141088
 H       -4.317530932    12.627544754     2.651869963
 H       -2.855609908    13.456262994     3.172359390
 H       -2.738579518    11.847902274     2.469852730
 H       -1.373041786    14.271502929    -0.151048377
 H       -0.990556060    12.801337352     0.768492776
 H       -1.180353311    14.340841872     1.593328519
 H       -3.679901357    11.451677243    -3.274589553
 H       -3.702024478    12.949532445    -4.194088740
 H       -5.134962516    12.465818642    -3.296615549
 H       -3.603707076    15.402689423    -1.377142270
 H       -5.110857281    14.813313657    -2.101572920
 H       -3.722528484    15.181296832    -3.116605564
 H       -2.544695607    -1.655555586    -0.722244099
 H       -2.458051905    -1.635739274    -2.476509164
 H       -2.695914842    -0.125161124    -1.609533903
 H        0.901822159    -0.135390381    -2.956253756
 H       -0.618017310     0.778960233    -2.979109449
 H       -0.527076815    -0.812531160    -3.721922707
 H       -0.467294851    -2.979625888     0.746114884
 H       -0.643108016    -2.871772295     2.491131215
 H        0.902600485    -2.476783884     1.753858276
 H       -0.639390987     0.842937594     2.885059891
 H        0.789874529    -0.191352950     3.050920429
 H       -0.759786643    -0.710393237     3.700912784

