187   

Si        0.000000000     0.000000000     0.000000000
 C        1.865284361     0.000000000     0.000000000
 C       -0.680818415     1.710073444     0.000000000
 C        0.122232932     2.808071721     0.324162127
 C       -0.405848438     4.099147727     0.320483137
 C       -1.747669847     4.321402194     0.000781436
 C       -2.552336718     3.219557681    -0.319349657
 C       -2.027623978     1.930262966    -0.319339210
 C       -2.344136406     5.652877596    -0.016240730
 C       -1.687655674     6.790873280     0.266689890
 C       -2.288154039     8.120784655     0.248480622
 C       -1.487631859     9.226652038     0.564891271
 C       -2.017593154    10.514284740     0.560383347
 C       -3.366430779    10.724540964     0.247671023
 C       -4.168095685     9.622621650    -0.067997752
 C       -3.631725592     8.335575716    -0.070977962
Si       -4.076899174    12.421509976     0.238756026
 C       -5.896596205    12.327759161     0.371225619
 C       -6.776876995    12.953642006    -0.420903940
 C       -8.229441740    12.848297578    -0.276245044
 C       -9.053650312    13.551179597    -1.166989969
 C      -10.433699948    13.485117498    -1.072952110
 C      -11.044904544    12.739314205    -0.039729882
 C      -10.217350676    12.032892651     0.855755643
 C       -8.836648726    12.075274717     0.717441157
 N      -12.440554792    12.682178287     0.041985304
 C      -13.210520535    13.869173124    -0.359929561
 C      -13.030890189    11.908555399     1.140885496
 C      -12.781865291    15.195844222     0.294926763
 C      -13.228742969    15.364469312     1.757768474
 N      -14.683043542    15.469265435     1.995204734
 C      -15.349435788    14.227896198     2.161851433
 C      -14.978640121    13.445377019     3.274344885
 C      -15.588041581    12.222281056     3.498640290
 C      -16.601515920    11.754345845     2.647866310
 C      -16.984949346    12.547619157     1.564154320
 C      -16.380438340    13.777533311     1.325100613
 C      -15.355346887    16.451271129     1.131528985
 C      -17.212370041    10.453366854     2.931275954
 C      -18.184919073     9.906418249     2.191363467
Si      -18.982915467     8.289892567     2.496724500
 C      -18.983080452     7.307798032     0.942100347
 C      -18.055098680     7.588689460    -0.066469888
 C      -18.049415294     6.848142242    -1.247827807
 C      -18.959227647     5.805006646    -1.441404798
 C      -19.882477579     5.521404205    -0.426063349
 C      -19.895201202     6.262446457     0.752812659
 C      -18.989648117     5.003967966    -2.660674015
 C      -18.163018129     5.171265537    -3.706828072
 C      -18.193251423     4.370376148    -4.926157885
 C      -19.106072980     3.331126015    -5.123040316
 C      -19.099709355     2.590535934    -6.304992131
 C      -18.173663771     2.870161786    -7.314798830
 C      -17.256428807     3.911792528    -7.119403760
 C      -17.268961351     4.652876795    -5.941096691
Si      -18.152310440     1.902003714    -8.880381540
 C      -19.179643132     0.351149129    -8.742232301
 C      -18.843266749     2.970010612   -10.296324139
 C      -16.345508437     1.459162365    -9.284341252
 C      -18.070822167     7.312832409     3.848738422
 C      -20.773164998     8.595048640     3.062457491
 C       -3.408807043    13.393828853     1.732193017
 C       -3.546303882    13.310184177    -1.356631672
 C       -0.653563246    -0.906570838    -1.541317536
 C       -0.616079086    -0.922177633     1.547053387
 H        1.178635853     2.697050068     0.583677838
 H        0.241724850     4.937273736     0.571344440
 H       -3.600337122     3.370582962    -0.571659325
 H       -2.703405739     1.110469376    -0.578867666
 H       -3.404598215     5.674948770    -0.284912255
 H       -0.627562149     6.770466932     0.535228127
 H       -0.439054703     9.080552697     0.816264837
 H       -1.345324428    11.338957579     0.812041607
 H       -5.227845346     9.729647056    -0.322981492
 H       -4.274417271     7.494185217    -0.323660128
 H       -6.237502782    11.691196730     1.204964462
 H       -6.471689772    13.600239336    -1.253996280
 H       -8.603199677    14.151087832    -1.958403287
 H      -11.044911354    14.006452713    -1.803124677
 H      -10.646175429    11.444943929     1.660498416
 H       -8.219179206    11.504923715     1.413753957
 H      -14.133522536    11.900741581     1.052377547
 H      -12.775406048    12.295541999     2.140993968
 H      -12.699244453    10.856457751     1.065428804
 H      -14.831060893    17.419194814     1.219208547
 H      -16.386594556    16.606241790     1.496857491
 H      -15.397833646    16.172439683     0.067268180
 H      -14.218713807    13.815562242     3.960156498
 H      -15.286194765    11.624066854     4.358953878
 H      -17.773865352    12.207358702     0.891411499
 H      -16.706144622    14.373493232     0.477723001
 H      -16.791079260     9.961957789     3.817882309
 H      -18.592876750    10.430987378     1.310574715
 H      -17.314399858     8.389354237     0.031710299
 H      -17.322580307     7.089417014    -2.021551120
 H      -20.599219150     4.713104727    -0.557469329
 H      -20.639121389     5.997651531     1.509008521
 H      -19.756887618     4.224442355    -2.676770820
 H      -17.394969827     5.950430977    -3.690391504
 H      -19.834655503     3.090408329    -4.351075080
 H      -19.838739978     1.790418047    -6.401510387
 H      -16.509073867     4.175024853    -7.873387851
 H      -16.549548787     5.458905118    -5.808247704
 H      -13.119989653    13.961274479    -1.469658400
 H      -14.290562640    13.678441857    -0.164263894
 H      -11.675225353    15.287160882     0.258212276
 H      -13.160392165    16.036378991    -0.316104045
 H      -12.817962517    14.530151801     2.369272624
 H      -12.777130770    16.299683608     2.169159108
 H        2.263006373    -1.029819549    -0.038990426
 H        2.275539873     0.480794467     0.905216806
 H        2.260470580     0.541986572    -0.878456027
 H      -19.127283298    -0.244711279    -9.670960566
 H      -20.243172449     0.579743972    -8.553662986
 H      -18.820354794    -0.289707544    -7.916597033
 H      -18.848311786     2.302657634   -11.206247075
 C      -20.288474790     3.432894015   -10.035991348
 C      -17.980509595     4.203789580   -10.616595233
 H      -15.804409969     2.443110819    -9.400755421
 C      -15.662149417     0.677857521    -8.147545464
 C      -16.184838809     0.675224972   -10.598923755
 H      -18.012402188     7.998724046     4.742962677
 C      -18.809596320     6.032840012     4.278171661
 C      -16.635605864     6.939164525     3.434713146
 H      -21.213569514     7.575443701     3.262764388
 C      -20.862627189     9.415712479     4.360908521
 C      -21.626392042     9.275663603     1.977425894
 H       -2.290702922    13.450426437     1.592319616
 C       -3.953209399    14.831186672     1.806207453
 C       -3.684536888    12.682429123     3.068898473
 H       -4.091424871    14.298241390    -1.356702613
 C       -2.036182154    13.600609863    -1.422166843
 C       -3.955273033    12.535556134    -2.622878246
 H       -1.778162917    -0.913342711    -1.443019002
 C       -0.300094556    -0.175428600    -2.849117916
 C       -0.181410652    -2.368049202    -1.640456075
 H       -0.130318737    -1.939866257     1.509770813
 C       -0.184751455    -0.234719512     2.855481604
 C       -2.141802846    -1.123493563     1.575753584
 H      -20.990499633     2.604282448    -9.877287705
 H      -20.666556383     3.993428658   -10.902983055
 H      -20.371170579     4.109077401    -9.172866310
 H      -16.951440018     3.953184832   -10.903621639
 H      -17.934643583     4.920486254    -9.784490675
 H      -18.410675703     4.751703901   -11.467708979
 H      -15.689069317     1.203738120    -7.182313126
 H      -14.599491030     0.522365838    -8.382447310
 H      -16.093422580    -0.319945053    -7.992492556
 H      -16.587236355     1.203763310   -11.472737018
 H      -16.651054985    -0.318347924   -10.564970411
 H      -15.118128673     0.506385802   -10.806895598
 H      -19.811026420     6.222872151     4.684895934
 H      -18.247504425     5.524249383     5.075148879
 H      -18.909991887     5.302149026     3.463085576
 H      -16.019960917     7.802920149     3.149237328
 H      -16.606502221     6.225428112     2.598386337
 H      -16.116011086     6.451930959     4.271783206
 H      -20.347573416     8.946602912     5.209145752
 H      -21.913685913     9.527724881     4.663719654
 H      -20.464458102    10.434734565     4.252167837
 H      -21.644555142     8.723663804     1.027020715
 H      -21.302551259    10.302447173     1.758940286
 H      -22.671885282     9.346926912     2.310028239
 H       -3.718288907    15.431695287     0.918016678
 H       -3.507921438    15.359259569     2.661361056
 H       -5.042008782    14.868818029     1.954471321
 H       -3.286559135    11.658488861     3.107333921
 H       -4.754239155    12.632332100     3.314304661
 H       -3.204322288    13.229091133     3.892833398
 H       -1.679400294    14.239440296    -0.604373460
 H       -1.796536972    14.133708373    -2.353740026
 H       -1.424569268    12.687365215    -1.428370279
 H       -5.031308880    12.320643255    -2.678765946
 H       -3.424879127    11.577662169    -2.725458349
 H       -3.709767738    13.120778374    -3.520000784
 H       -0.655811403     0.864652654    -2.874449197
 H       -0.771212825    -0.681642553    -3.703634085
 H        0.778375922    -0.160813802    -3.054947567
 H       -0.462162229    -2.975803758    -0.770620498
 H        0.904419239    -2.459201898    -1.775929293
 H       -0.641170326    -2.852186028    -2.514353412
 H        0.902911030    -0.124724671     2.952937365
 H       -0.511620634    -0.830728558     3.719617473
 H       -0.632899290     0.761391445     2.982046352
 H       -2.522871362    -1.689637804     0.716484030
 H       -2.696520653    -0.175963283     1.628888344
 H       -2.428256082    -1.695500866     2.470338884

