187   

Si        0.000000000     0.000000000     0.000000000
 C        1.865777046     0.000000000     0.000000000
 C       -0.672643844     1.713682810     0.000000000
 C        0.167755770     2.818654886     0.168091860
 C       -0.352680739     4.112619106     0.166437753
 C       -1.723150167     4.331790668     0.004779370
 C       -2.564286501     3.223357740    -0.161967293
 C       -2.047194825     1.930804319    -0.166701641
 C       -2.309776218     5.667997373    -0.003120433
 C       -1.612336738     6.807653882     0.140880421
 C       -2.192339676     8.146436132     0.133941203
 C       -1.340854598     9.247608207     0.295429753
 C       -1.846537503    10.544947887     0.295798910
 C       -3.220958384    10.769561478     0.152147405
 C       -4.074196989     9.672154212    -0.005965622
 C       -3.562550625     8.375183003    -0.020114556
Si       -3.905306285    12.477259717     0.150543428
 C       -5.626648070    12.442231565     0.756899697
 C       -6.710568886    12.992387718     0.193683382
 C       -8.052562897    12.899637246     0.774491475
 C       -9.137644667    13.502070878     0.125306476
 C      -10.420806128    13.431050632     0.651479123
 C      -10.674410960    12.679862169     1.815016014
 C       -9.584588775    12.059722564     2.461376394
 C       -8.300764521    12.192261933     1.956427054
 N      -11.952744185    12.572535140     2.391778380
 C      -13.105173033    13.162857232     1.701809868
 C      -12.259256090    11.290654075     3.052154123
 C      -13.564646490    12.401317053     0.446312349
 C      -14.893434962    12.944831469    -0.110721318
 N      -14.922385536    14.388848635    -0.434756497
 C      -13.727333496    14.876762458    -1.025209552
 C      -13.319200111    14.295349700    -2.241804324
 C      -12.161424636    14.730217715    -2.865162665
 C      -11.379365970    15.750863942    -2.302708535
 C      -11.799970741    16.337023752    -1.107216784
 C      -12.969955127    15.923484750    -0.479316053
 C      -15.500098102    15.217635995     0.636308147
 C      -10.164952266    16.173552326    -3.001825076
 C       -9.344132005    17.135416615    -2.559473759
Si       -7.828310849    17.660250006    -3.435843367
 C       -7.966613318    17.452191680    -5.257549939
 C       -9.208087946    17.611088480    -5.883707210
 C       -9.330685499    17.456927316    -7.263638658
 C       -8.215900696    17.152749479    -8.050022763
 C       -6.972385538    17.003105808    -7.422203504
 C       -6.846998677    17.153796903    -6.043377105
 C       -8.297275847    16.982486558    -9.496971933
 C       -9.425586256    17.098938249   -10.217541870
 C       -9.509655667    16.929198220   -11.664300125
 C       -8.398546397    16.622516801   -12.453881288
 C       -8.525033456    16.469095287   -13.834496708
 C       -9.769728988    16.613284124   -14.455110062
 C      -10.886065014    16.920439796   -13.665263137
 C      -10.755589052    17.078577059   -12.288457590
Si       -9.954120050    16.414095289   -16.275953655
 C       -8.441888056    15.632346029   -17.038367895
 C      -11.488579651    15.336840322   -16.605595348
 C      -10.230154212    18.119847275   -17.074300634
 C       -7.444964824    19.468238583    -3.009428918
 C       -6.430758289    16.538687255    -2.790736116
 C       -2.888807183    13.610237333     1.290615805
 C       -3.793484254    13.141014117    -1.627341336
 C       -0.664586343    -0.892539296    -1.543844269
 C       -0.600912240    -0.931356837     1.547616032
 H        1.247718188     2.711009674     0.301742343
 H        0.323976754     4.955516168     0.295032882
 H       -3.634708947     3.371886505    -0.291117579
 H       -2.751338926     1.105704296    -0.306280793
 H       -3.394798091     5.691822100    -0.138970447
 H       -0.526952809     6.781411213     0.276560399
 H       -0.271121082     9.090526124     0.418526110
 H       -1.134151252    11.365124047     0.418380304
 H       -5.156815547     9.791522501    -0.121906957
 H       -4.244644257     7.536917793    -0.149190643
 H       -5.710392986    11.893318100     1.712643158
 H       -6.677348962    13.553561830    -0.749110618
 H       -8.977582789    14.057729505    -0.801501742
 H      -11.227103109    13.948267134     0.134673187
 H       -9.739250644    11.492710870     3.373850733
 H       -7.474996421    11.720019164     2.491527505
 H      -13.331344739    11.223075288     3.295651737
 H      -11.707850499    11.238980711     4.009076186
 H      -11.987279735    10.415039191     2.440318312
 H      -16.518846307    14.852932615     0.855976774
 H      -15.606579414    16.256224340     0.274011629
 H      -14.923747319    15.228282070     1.573589425
 H      -13.922142269    13.509099898    -2.689595081
 H      -11.855333456    14.271323951    -3.805987489
 H      -11.210422794    17.134322604    -0.652010948
 H      -13.272480226    16.407619040     0.444439433
 H       -9.992672057    15.628014647    -3.940304566
 H       -9.532820591    17.659228041    -1.609856811
 H      -10.115497397    17.854766835    -5.320547436
 H      -10.308578581    17.579449634    -7.726029606
 H       -6.091707474    16.767474441    -8.016538679
 H       -5.850783015    17.028441815    -5.610360851
 H       -7.347403143    16.744369277    -9.984265968
 H      -10.375340394    17.337591089    -9.729474137
 H       -7.419155427    16.500933039   -11.994737044
 H       -7.619788898    16.230112716   -14.399443629
 H      -11.883974536    17.044616674   -14.095246873
 H      -11.633805324    17.318949072   -11.692096539
 H      -13.940279452    13.225750526     2.437518758
 H      -12.845888657    14.217247851     1.442423097
 H      -12.776324560    12.451761450    -0.332261364
 H      -13.678737749    11.325225300     0.673351001
 H      -15.136652673    12.404421173    -1.057612567
 H      -15.721960318    12.716183881     0.593752825
 H        2.263728493    -1.029985616    -0.033202178
 H        2.273780766     0.485112361     0.904102418
 H        2.262966264     0.536676843    -0.880589041
 H       -8.577447970    15.479707488   -18.124030759
 H       -8.236892018    14.644198896   -16.587779576
 H       -7.543319300    16.258947406   -16.900545458
 H      -12.360714351    15.895003637   -16.155805361
 C      -11.783538287    15.129484364   -18.101763447
 C      -11.403458919    13.963134587   -15.915952680
 H      -10.276041081    17.931933311   -18.185978520
 C      -11.547225072    18.794114351   -16.650473164
 C       -9.068361908    19.093190402   -16.802574849
 H       -7.343868127    19.512984660    -1.886291352
 C       -6.126694339    19.967220799    -3.626789800
 C       -8.583408300    20.417756045    -3.424375811
 H       -5.477301977    16.915294541    -3.258901187
 C       -6.265448112    16.587105238    -1.262532537
 C       -6.646399538    15.080157191    -3.230772538
 H       -1.836685287    13.602117350     0.883282930
 C       -3.388475460    15.066312330     1.287351420
 C       -2.840508848    13.098671985     2.741286721
 H       -4.354059364    14.121810210    -1.628551234
 C       -2.352923338    13.420479393    -2.089927556
 C       -4.463164052    12.193674909    -2.639774658
 H       -1.789441114    -0.876434705    -1.448197834
 C       -0.293772748    -0.166741255    -2.849876253
 C       -0.220020576    -2.362545092    -1.643120490
 H       -0.083662362    -1.933963641     1.516324699
 C       -0.194607918    -0.225119598     2.854272387
 C       -2.119199585    -1.181750132     1.575549806
 H      -11.927874266    16.068812805   -18.651026924
 H      -12.713937416    14.556099794   -18.224601877
 H      -11.000939770    14.557339707   -18.617422259
 H      -11.245674642    14.031756166   -14.830020631
 H      -10.609015589    13.325481497   -16.325769307
 H      -12.344681573    13.412446541   -16.054914769
 H      -12.437881210    18.197160455   -16.883647190
 H      -11.669416689    19.747522031   -17.185018547
 H      -11.575277981    19.039137474   -15.579311251
 H       -8.097184118    18.722670296   -17.154967429
 H       -8.962055468    19.344774170   -15.737447526
 H       -9.242825095    20.043696488   -17.326903836
 H       -5.249193282    19.392223229    -3.304514506
 H       -5.939433619    21.007697718    -3.323692358
 H       -6.141580169    19.967772450    -4.726198935
 H       -9.552090526    20.161722196    -2.974099439
 H       -8.725524728    20.464459140    -4.513771526
 H       -8.355292126    21.443627922    -3.101500212
 H       -6.071753102    17.594947141    -0.874941207
 H       -5.406120708    15.972803828    -0.955191914
 H       -7.136311208    16.184505674    -0.723988448
 H       -6.735854003    14.957210356    -4.319216497
 H       -7.536728348    14.621709535    -2.775639589
 H       -5.787288676    14.463777841    -2.928142524
 H       -3.357106251    15.534163854     0.294913209
 H       -2.752796135    15.683675719     1.938036672
 H       -4.412919201    15.167726650     1.674079144
 H       -2.459978738    12.071417788     2.829333270
 H       -3.819371407    13.133928896     3.239521804
 H       -2.167082803    13.727366189     3.340902874
 H       -1.833857508    14.165610978    -1.473909301
 H       -2.358421699    13.820011210    -3.114578380
 H       -1.729502579    12.515664088    -2.118905568
 H       -5.520018139    11.990013979    -2.416785895
 H       -3.952447915    11.222466558    -2.716496213
 H       -4.434482179    12.631609233    -3.647696261
 H       -0.631131953     0.879432002    -2.875379017
 H       -0.771696549    -0.663670278    -3.706122637
 H        0.785315540    -0.171490312    -3.052592553
 H       -0.515978292    -2.966002622    -0.775313227
 H        0.864492472    -2.474110135    -1.773944376
 H       -0.685034112    -2.836658538    -2.519725830
 H        0.888948846    -0.081523082     2.954576969
 H       -0.506118621    -0.826577866     3.720232645
 H       -0.672372630     0.757921994     2.974573153
 H       -2.486106522    -1.739443562     0.704732724
 H       -2.702664904    -0.253746367     1.653600115
 H       -2.383503780    -1.783275164     2.457604780

