187   

Si        0.000000000     0.000000000     0.000000000
 C        1.865178505     0.000000000     0.000000000
 C       -0.668408656     1.715528835     0.000000000
 C        0.071473318     2.764417095    -0.556772298
 C       -0.431875578     4.064909687    -0.558397357
 C       -1.685557685     4.345992656    -0.008842160
 C       -2.428594987     3.293384517     0.541686236
 C       -1.929816732     1.993489088     0.542119981
 C       -2.252883706     5.689469232     0.012217306
 C       -1.651778401     6.785387854    -0.481605603
 C       -2.230094046     8.124511089    -0.454452933
 C       -1.503967185     9.190017786    -1.002633730
 C       -2.021502009    10.483352232    -0.996105430
 C       -3.286415997    10.736684091    -0.453144498
 C       -4.010724771     9.674852912     0.101142645
 C       -3.480699805     8.386088542     0.112114203
Si       -4.009829001    12.431477864    -0.423532177
 C       -5.807683249    12.215841070    -0.165086311
 C       -6.551272237    12.848953677     0.750833071
 C       -7.990301012    12.642473700     0.919747637
 C       -8.668383822    13.361537733     1.913721761
 C      -10.029957955    13.200217967     2.111679210
 C      -10.759583776    12.271199576     1.338745451
 C      -10.082570749    11.564169182     0.329993950
 C       -8.728946291    11.780474961     0.106016492
 N      -12.146314538    12.125487659     1.559752749
 C      -12.584016781    12.197137838     2.972164453
 C      -12.814994878    11.049485922     0.807297899
 C      -11.774132566    11.343751895     3.968249511
 C      -12.303806670     9.904893018     4.128165585
 N      -11.257972760     8.853884302     4.157159814
 C      -10.692060279     8.637714155     2.859354431
 C      -11.461799907     7.863483286     1.973817571
 C      -10.992142501     7.603331640     0.696381979
 C       -9.754843393     8.107859100     0.268346537
 C       -8.986475771     8.856026484     1.163917509
 C       -9.434367461     9.100298680     2.459020890
 C      -10.272804802     9.051302181     5.234658755
 C       -9.311610796     7.799158496    -1.093195153
 C       -8.156497877     8.215901862    -1.626771951
Si       -7.591009670     7.836964570    -3.327054119
 C       -7.085470089     9.425312954    -4.107756541
 C       -7.568302155    10.631017364    -3.585982185
 C       -7.201241257    11.846985921    -4.157988190
 C       -6.376953245    11.883268122    -5.286707457
 C       -5.910012976    10.674109032    -5.818572362
 C       -6.258478709     9.457482844    -5.236365839
 C       -5.970452137    13.135997127    -5.914745290
 C       -6.354274796    14.353099767    -5.493529773
 C       -5.956423174    15.612984384    -6.110624431
 C       -5.117647552    15.675086089    -7.225942388
 C       -4.763116444    16.903601776    -7.783418099
 C       -5.242545204    18.097642918    -7.235999564
 C       -6.082892913    18.037754456    -6.115850029
 C       -6.432570887    16.810617609    -5.560042117
Si       -4.784716078    19.727283855    -7.959026216
 C       -3.991987925    19.536512413    -9.636723993
 C       -6.362188325    20.784142964    -8.092970071
 C       -3.559566905    20.609570968    -6.799508665
 C       -6.094505607     6.665099645    -3.236457823
 C       -8.963814437     7.022575274    -4.354418911
 C       -3.218066453    13.454545542     0.966343057
 C       -3.705980120    13.305032812    -2.086373812
 C       -0.631689708    -0.902005988    -1.552448585
 C       -0.648142487    -0.924974991     1.532628262
 H        1.058914143     2.606297058    -0.999150799
 H        0.164746912     4.863997744    -0.994436450
 H       -3.408364940     3.490492264     0.973266558
 H       -2.556458063     1.212890404     0.982147016
 H       -3.242940808     5.758666774     0.473783623
 H       -0.663217234     6.719866253    -0.944010303
 H       -0.524419393     9.008101676    -1.439489572
 H       -1.408615867    11.278364743    -1.429295299
 H       -5.001640586     9.814150116     0.547527226
 H       -4.056317900     7.579277726     0.563580144
 H       -6.260949889    11.501204753    -0.874850838
 H       -6.133619634    13.576554107     1.457526240
 H       -8.120775609    14.065607827     2.540218510
 H      -10.535368692    13.797866538     2.864584985
 H      -10.605366759    10.841152927    -0.291487840
 H       -8.236645503    11.241392062    -0.706811944
 H      -13.893598637    11.051415702     1.033216683
 H      -12.412510720    10.043528512     1.020357774
 H      -12.715374142    11.249750727    -0.275176486
 H      -10.802776686     9.011596898     6.202107033
 H       -9.713030286     9.997581495     5.184700856
 H       -9.550933305     8.215631866     5.219761834
 H      -12.417071097     7.462720194     2.308045994
 H      -11.592534529     6.995553895     0.020087623
 H       -8.013559706     9.247876843     0.859447820
 H       -8.813622199     9.678142708     3.139085197
 H      -10.032919393     7.183773394    -1.646863728
 H       -7.440020171     8.819271137    -1.043751682
 H       -8.238683099    10.664213788    -2.720230001
 H       -7.571248606    12.772824793    -3.719367905
 H       -5.267446807    10.682032883    -6.696489330
 H       -5.860755193     8.545581061    -5.689531748
 H       -5.312858227    13.025664563    -6.780859922
 H       -7.016081112    14.458395997    -4.627444602
 H       -4.733420954    14.759748636    -7.672128296
 H       -4.105815673    16.889111259    -8.657052816
 H       -6.488487490    18.938622005    -5.646641475
 H       -7.086655090    16.783914271    -4.690072209
 H      -12.521931910    13.271531890     3.270594147
 H      -13.663248334    11.937697605     3.026604589
 H      -10.710526219    11.316842707     3.650993325
 H      -11.763807512    11.846663044     4.952487425
 H      -12.883256519     9.811429678     5.073372430
 H      -13.011609377     9.655614075     3.306848254
 H        2.263441142    -1.028612270     0.059267439
 H        2.258719261     0.559852475     0.868208475
 H        2.277021743     0.464151157    -0.912904701
 H       -3.758062710    20.520551428   -10.080870063
 H       -4.666389475    19.009331922   -10.335769809
 H       -3.049408078    18.964320949    -9.581336254
 H       -6.751194427    20.894058606    -7.038886634
 C       -6.109954496    22.195811796    -8.651610317
 C       -7.458848856    20.101637899    -8.930260673
 H       -3.274736910    21.565440367    -7.326985310
 C       -4.161286987    20.980830273    -5.432353405
 C       -2.276047609    19.791403582    -6.566720971
 H       -5.966126335     6.242670854    -4.274628712
 C       -4.794423441     7.393690994    -2.860683643
 C       -6.309327516     5.490760957    -2.265606707
 H       -9.295412528     6.115442615    -3.770871912
 C      -10.182533352     7.945467368    -4.543316029
 C       -8.490917818     6.546249894    -5.739697221
 H       -3.784778997    14.429864993     0.996534751
 C       -3.353186196    12.777722812     2.343582805
 C       -1.732301394    13.775129875     0.722714169
 H       -2.660640350    13.725953784    -2.036744617
 C       -3.766687794    12.339747630    -3.281030498
 C       -4.678352632    14.472646897    -2.330263365
 H       -0.168619300    -1.930170615    -1.522089424
 C       -2.162012368    -1.066907648    -1.576615330
 C       -0.187752799    -0.216723519    -2.857704998
 H       -1.773605123    -0.921266428     1.445007827
 C       -0.188671732    -2.392444409     1.602712189
 C       -0.274408229    -0.220496462     2.849461491
 H       -5.385830192    22.773717467    -8.062889252
 H       -7.044849518    22.775043347    -8.642747524
 H       -5.764114102    22.188569311    -9.693767839
 H       -7.731866780    19.103913353    -8.557459740
 H       -7.187630548    19.995932608    -9.989019060
 H       -8.380278650    20.700808814    -8.905306148
 H       -5.043031528    21.629950769    -5.505180190
 H       -3.422159220    21.534746403    -4.835216445
 H       -4.438089166    20.100409037    -4.835332338
 H       -1.736831479    19.552310191    -7.492337862
 H       -2.462382008    18.846192962    -6.036700066
 H       -1.574174878    20.361546146    -5.941246214
 H       -4.501207378     8.169813756    -3.580552901
 H       -3.955836794     6.683028013    -2.820484804
 H       -4.835024822     7.870972318    -1.870506072
 H       -7.180967157     4.872538955    -2.513000400
 H       -6.415502734     5.814471153    -1.220413212
 H       -5.438479445     4.818665134    -2.292065014
 H      -10.609689088     8.312849809    -3.600328949
 H      -10.988924409     7.405198899    -5.058379423
 H       -9.956347842     8.824160051    -5.164902934
 H       -7.693373346     5.793651522    -5.693858198
 H       -8.141985804     7.368517130    -6.380160018
 H       -9.324723382     6.073375545    -6.278932089
 H       -4.389996073    12.542470433     2.619561570
 H       -2.966792470    13.440955368     3.129954662
 H       -2.775560417    11.844896676     2.416587757
 H       -1.554904158    14.356522601    -0.191117644
 H       -1.102058005    12.875893334     0.677507677
 H       -1.338415356    14.382216485     1.550867010
 H       -2.979551185    11.575291802    -3.266365935
 H       -3.643999786    12.893198566    -4.223661637
 H       -4.729256581    11.812128013    -3.364588509
 H       -4.624080867    15.254189918    -1.562543585
 H       -5.725648120    14.146714131    -2.404049445
 H       -4.443818735    14.963258727    -3.287597884
 H       -2.551356434    -1.641679071    -0.726691907
 H       -2.467071719    -1.613072945    -2.481000612
 H       -2.695219076    -0.105920254    -1.605105549
 H        0.901970316    -0.132871881    -2.957575486
 H       -0.612816188     0.790307123    -2.976952193
 H       -0.531220156    -0.799427260    -3.724507088
 H       -0.482624533    -2.982655166     0.725202683
 H       -0.645552892    -2.887284763     2.472132835
 H        0.897380734    -2.496047017     1.727058808
 H       -0.612900774     0.824469813     2.895462220
 H        0.805937243    -0.225847269     3.046695357
 H       -0.746197693    -0.734171340     3.699192638

