187   

Si        0.000000000     0.000000000     0.000000000
 C        1.865145740     0.000000000     0.000000000
 C       -0.672116662     1.714158158     0.000000000
 C        0.082436209     2.775195626     0.511758515
 C       -0.427237274     4.073292007     0.511455334
 C       -1.703005996     4.339994706     0.007256578
 C       -2.460157922     3.275105158    -0.498613676
 C       -1.954070248     1.978024397    -0.499849166
 C       -2.277181507     5.681283115    -0.013524087
 C       -1.659162299     6.785518302     0.438920168
 C       -2.233737668     8.126634648     0.417938322
 C       -1.476380228     9.191871413     0.923784785
 C       -1.982977615    10.488624514     0.924579121
 C       -3.264170062    10.749980729     0.422111122
 C       -4.021489766     9.688978831    -0.084487102
 C       -3.508620696     8.392184559    -0.088911919
Si       -3.935369655    12.463192755     0.422348127
 C       -5.742552333    12.422142977     0.155598908
 C       -6.419360927    13.148363950    -0.743669230
 C       -7.870167951    13.085867608    -0.925972644
 C       -8.466088917    13.896992663    -1.902839338
 C       -9.834040472    13.876361100    -2.116010425
 C      -10.658059241    12.991549240    -1.384420600
 C      -10.059920264    12.173977399    -0.405577095
 C       -8.692680228    12.243519292    -0.172937648
 N      -12.039617219    12.985426330    -1.614216978
 C      -12.510462626    13.210294777    -2.990464258
 C      -12.856374920    12.048333215    -0.832899052
 C      -11.850973282    12.336573943    -4.073692696
 C      -12.339643821    10.877773390    -4.108288034
 N      -13.744663172    10.663481182    -4.510244608
 C      -14.686134427    10.738207506    -3.451461266
 C      -14.582165987     9.770753235    -2.431549389
 C      -15.468366570     9.784081081    -1.367354300
 C      -16.499325286    10.734007963    -1.298494609
 C      -16.614926776    11.671637102    -2.327335318
 C      -15.731381084    11.671593374    -3.401637317
 C      -14.117450346    11.354459773    -5.753716203
 C      -17.408949044    10.703223327    -0.150536542
 C      -18.425745788    11.557266863     0.021021488
Si      -19.591071551    11.567349371     1.429717474
 C      -19.705317723    13.270308668     2.113903065
 C      -18.635127681    14.160267728     1.957196488
 C      -18.712782488    15.451850102     2.472012922
 C      -19.852896916    15.880660647     3.164376048
 C      -20.915549832    14.986795722     3.324849194
 C      -20.843798607    13.694309926     2.806937714
 C      -19.886695167    17.243463942     3.685054645
 C      -20.917692629    17.778869922     4.360550641
 C      -20.952184136    19.141466785     4.881473533
 C      -19.891270891    20.036625980     4.722285038
 C      -19.966891419    21.330806167     5.236885439
 C      -21.110944653    21.760369530     5.916592670
 C      -22.176961994    20.864636867     6.076458970
 C      -22.096189805    19.571618605     5.567160035
Si      -21.226021692    23.465407317     6.601587458
 C      -19.879914186    24.567164301     5.928120848
 C      -22.937384003    24.172405518     6.159967895
 C      -21.070497546    23.397570337     8.497487543
 C      -21.297885779    11.006083011     0.805031375
 C      -19.025210971    10.384728260     2.806637532
 C       -3.586773883    13.267742194     2.111383943
 C       -3.067150319    13.478425820    -0.931324303
 C       -0.648237247    -0.920678309    -1.535361150
 C       -0.629653784    -0.907593751     1.549848089
 H        1.086830039     2.629248563     0.918837511
 H        0.181793573     4.882038686     0.911288508
 H       -3.456577355     3.460534405    -0.895212617
 H       -2.591909024     1.188046494    -0.905714761
 H       -3.284028799     5.741049772    -0.437102433
 H       -0.652283343     6.725637713     0.862385753
 H       -0.480588160     9.006137855     1.321332856
 H       -1.347216227    11.279654128     1.331877751
 H       -5.026529309     9.836671637    -0.493114912
 H       -4.115593060     7.583397256    -0.491352691
 H       -6.266633768    11.728633859     0.834251427
 H       -5.929243289    13.854153410    -1.427256726
 H       -7.845637862    14.568838261    -2.496801774
 H      -10.272132943    14.548345383    -2.847700886
 H      -10.657285556    11.482971540     0.180013595
 H       -8.256897144    11.611407739     0.602746747
 H      -13.927642849    12.188674428    -1.070344798
 H      -12.737633503    12.272186572     0.243302717
 H      -12.607882147    10.989128390    -1.009572240
 H      -13.393913834    11.082497936    -6.542265131
 H      -14.152262640    12.452142015    -5.675319649
 H      -15.108227677    10.993040067    -6.083338228
 H      -13.807956156     9.008232653    -2.493417833
 H      -15.371823705     9.034147951    -0.581659550
 H      -17.411015151    12.417488105    -2.298337262
 H      -15.851798737    12.410071999    -4.188701684
 H      -17.174605914     9.904791832     0.565287529
 H      -18.639652580    12.343942394    -0.722500408
 H      -17.718205935    13.878152585     1.429130507
 H      -17.874567592    16.132943789     2.336028236
 H      -21.812455883    15.295179600     3.858810518
 H      -21.706136644    13.040456189     2.962644009
 H      -18.985757219    17.831539208     3.486420211
 H      -21.818387199    17.190685343     4.559229001
 H      -18.991279053    19.728401948     4.193263687
 H      -19.104520144    21.985199527     5.082009895
 H      -23.096546312    21.145091969     6.597916776
 H      -22.933729750    18.890025055     5.702637847
 H      -13.616558973    13.079543050    -3.016455626
 H      -12.331382570    14.287287003    -3.227136133
 H      -12.004932729    12.810956848    -5.060891011
 H      -10.749808344    12.329230213    -3.925933026
 H      -11.715729524    10.303738893    -4.835668992
 H      -12.167492510    10.404529065    -3.115893859
 H        2.263406996    -1.029463349    -0.041931197
 H        2.276966495     0.479244652     0.905168201
 H        2.258672475     0.544993340    -0.877546082
 H      -19.980813987    25.598417764     6.311176078
 H      -19.924000656    24.617459443     4.824959056
 H      -18.875591009    24.204932266     6.209527230
 H      -23.690519557    23.483831547     6.642674549
 C      -23.176154327    25.590327473     6.708662716
 C      -23.202319066    24.169995120     4.643514568
 H      -21.088447588    24.471406664     8.843610855
 C      -22.230766480    22.656321752     9.185483432
 C      -19.742220539    22.769838041     8.958345624
 H      -21.975272217    11.006991854     1.707691773
 C      -21.892028899    11.971619580    -0.235829735
 C      -21.286462934     9.582726519     0.220636979
 H      -18.875278800     9.380972306     2.313299642
 C      -17.687607172    10.815022843     3.436467305
 C      -20.066683746    10.214122942     3.926790798
 H       -2.463770204    13.293163094     2.217597693
 C       -4.108437523    14.711908290     2.209120327
 C       -4.155499615    12.447141903     3.282719487
 H       -3.595901334    14.475265415    -0.956244614
 C       -1.577201961    13.738662904    -0.646463458
 C       -3.197444562    12.830913359    -2.322371943
 H       -1.773308570    -0.924478320    -1.443427867
 C       -0.284279800    -0.206235870    -2.849513059
 C       -0.179812449    -2.384761659    -1.615436225
 H       -0.164175850    -1.934640487     1.516308813
 C       -0.186179312    -0.224957085     2.856699699
 C       -2.159476090    -1.076628330     1.575007500
 H      -23.072984608    25.657799502     7.799403115
 H      -24.201122960    25.914602590     6.476679705
 H      -22.509329045    26.340065775     6.262502885
 H      -23.104209864    23.174376914     4.187528467
 H      -22.543161071    24.852789824     4.091179274
 H      -24.230774962    24.500626706     4.439787006
 H      -23.213735881    23.098294681     8.979254947
 H      -22.102833888    22.690618279    10.277361743
 H      -22.275748017    21.591373115     8.917270885
 H      -18.856171203    23.292087700     8.575030066
 H      -19.650848232    21.710375866     8.678596606
 H      -19.668958573    22.805534651    10.054810308
 H      -21.967656118    13.007811328     0.123180277
 H      -22.914469008    11.662329749    -0.495908897
 H      -21.326667983    11.987023646    -1.177690505
 H      -20.953642887     8.820099126     0.936493735
 H      -20.658118946     9.493033273    -0.677096134
 H      -22.302065530     9.293620628    -0.085758898
 H      -16.872310169    10.923509710     2.708442673
 H      -17.354071374    10.062236612     4.164587357
 H      -17.763149791    11.763455649     3.988318326
 H      -21.023650845     9.808648941     3.574426889
 H      -20.275225363    11.150054920     4.464468292
 H      -19.694076516     9.505928820     4.681355890
 H       -3.679079189    15.382163243     1.453436963
 H       -3.846385967    15.141867938     3.186369640
 H       -5.203129439    14.777613796     2.128061825
 H       -3.792255646    11.409987693     3.304664079
 H       -5.253688330    12.414997046     3.289576111
 H       -3.854352014    12.897479195     4.239257465
 H       -1.400951746    14.284129835     0.289310784
 H       -1.144785817    14.356713080    -1.446827178
 H       -0.979623435    12.816791321    -0.617791167
 H       -4.237065179    12.647243913    -2.626361484
 H       -2.660977714    11.873980056    -2.398105593
 H       -2.762951222    13.488803233    -3.087874055
 H       -0.632265834     0.835909534    -2.888725453
 H       -0.753921406    -0.719310826    -3.700720588
 H        0.795456406    -0.200984532    -3.049866967
 H       -0.469269696    -2.982384596    -0.741417610
 H        0.906711668    -2.480931106    -1.741609367
 H       -0.634476601    -2.876762602    -2.487590809
 H        0.903448470    -0.139070273     2.956003008
 H       -0.527887654    -0.810786401     3.722119496
 H       -0.613149162     0.780931400     2.979070347
 H       -2.548616223    -1.646972766     0.722098132
 H       -2.694950230    -0.117121834     1.610637941
 H       -2.461878546    -1.629383802     2.476336233

