187   

Si        0.000000000     0.000000000     0.000000000
 C        1.863735493     0.000000000     0.000000000
 C       -0.656359611     1.717974897     0.000000000
 C        0.015275857     2.703147818    -0.733626859
 C       -0.456345232     4.013513629    -0.753933935
 C       -1.613775279     4.366160296    -0.054557623
 C       -2.289586665     3.377375460     0.671030413
 C       -1.818894234     2.066536689     0.696604899
 C       -2.139682857     5.726431981    -0.050792983
 C       -1.578463662     6.757203575    -0.704375729
 C       -2.095720379     8.119835403    -0.707145645
 C       -3.251441969     8.490634165    -0.013687745
 C       -3.707897245     9.806969006    -0.045929783
 C       -3.009299999    10.785663861    -0.763762423
 C       -1.856991330    10.414843511    -1.465476245
 C       -1.415840811     9.094440944    -1.447799584
Si       -3.636691575    12.512624263    -0.786979320
 C       -2.820630310    13.587159802    -2.020300050
 C       -2.301247724    13.195752538    -3.190829066
 C       -1.658200172    14.109703062    -4.138565885
 C       -1.147199235    13.591640257    -5.337886546
 C       -0.530681693    14.420158612    -6.263636411
 C       -0.422109933    15.796408045    -6.006402704
 C       -0.937937764    16.323106716    -4.816729972
 C       -1.554317929    15.482021535    -3.897101461
 N        0.228143939    16.587740210    -7.010998815
 C        1.701452805    16.444444840    -6.923335109
 C       -0.202061047    17.997510756    -7.050933422
 C        2.273355383    16.755152096    -5.529150156
 C        3.763498590    16.389715202    -5.445180262
 N        4.253817022    16.246113199    -4.066498991
 C        3.920834262    15.081573316    -3.348143406
 C        3.239826363    13.998126923    -3.936380055
 C        2.933015075    12.870228393    -3.187500740
 C        3.312344247    12.763984532    -1.842949837
 C        4.006844356    13.833098356    -1.266895731
 C        4.315294821    14.969937166    -1.998925537
 C        4.223837383    17.507627174    -3.305722594
 C        2.965626570    11.553470005    -1.093622488
 C        3.281262842    11.354209371     0.192878323
Si        2.895983102     9.882651205     1.216789568
 C        2.819923357     8.355588697     0.185206595
 C        1.995821644     8.304931749    -0.947509749
 C        1.930603954     7.156919617    -1.733777990
 C        2.678364526     6.019124550    -1.404495440
 C        3.497080532     6.068046647    -0.273082934
 C        3.568784996     7.219944519     0.509323274
 C        2.587341891     4.831540063    -2.250011008
 C        3.269208683     3.695437617    -2.024217662
 C        3.207240877     2.489310839    -2.841927513
 C        2.409588107     2.378175740    -3.982875559
 C        2.390539184     1.197290945    -4.727467574
 C        3.179628500     0.104628424    -4.354539868
 C        3.987824461     0.218484741    -3.214478326
 C        4.002242233     1.395106400    -2.471935075
Si        3.180411281    -1.470208821    -5.313063816
 C        2.235445357    -1.286366141    -6.909836998
 C        5.002243815    -1.906255289    -5.666151185
 C        2.451137274    -2.916358396    -4.308535431
 C        4.276694055     9.829851270     2.533873495
 C        1.265176851    10.116466311     2.170589873
 C       -5.510834652    12.498592196    -1.097001486
 C       -3.279911692    13.294549672     0.914700517
 C       -0.623210470    -0.827851505    -1.599184843
 C       -0.647879088    -0.967833717     1.502620168
 H        0.929560654     2.489299675    -1.300508701
 H        0.096152475     4.766764535    -1.315643962
 H       -3.192361036     3.631804855     1.221903690
 H       -2.386941973     1.336555363     1.278307042
 H       -3.052671039     5.865222953     0.534450745
 H       -0.657824191     6.614673431    -1.280335987
 H       -3.805482784     7.749890537     0.559376612
 H       -4.622217717    10.034323855     0.509444480
 H       -1.259097402    11.138755974    -2.029456368
 H       -0.530730409     8.818057415    -2.018678246
 H       -2.788681564    14.648083711    -1.717910440
 H       -2.329713702    12.155869098    -3.541740951
 H       -1.230189896    12.525136811    -5.545808282
 H       -0.138680329    14.017686010    -7.195972786
 H       -0.857200494    17.384812256    -4.602597278
 H       -1.949305995    15.906918143    -2.973825717
 H        0.169406688    18.445212628    -7.989356009
 H        0.149253977    18.612456062    -6.209420796
 H       -1.304553743    18.041409584    -7.083852548
 H        4.363181001    18.367875268    -3.979996467
 H        5.066696636    17.520383597    -2.591070274
 H        3.284260991    17.651344499    -2.747340774
 H        2.922382413    14.040647894    -4.973980766
 H        2.384171221    12.054600013    -3.660498018
 H        4.319683189    13.777935221    -0.223249285
 H        4.868464520    15.773404396    -1.522612549
 H        2.428204089    10.812381050    -1.698721748
 H        3.822796759    12.131038661     0.758622676
 H        1.377171091     9.158813697    -1.245235107
 H        1.296338540     7.147390152    -2.617903537
 H        4.088746127     5.200058683     0.012032188
 H        4.231017257     7.189395592     1.379800149
 H        1.918387638     4.922947140    -3.109613955
 H        3.940040596     3.619398890    -1.161331599
 H        1.788603857     3.214763026    -4.298456175
 H        1.742270912     1.167560181    -5.607567692
 H        4.630429922    -0.599131755    -2.875268178
 H        4.641639904     1.464205014    -1.593314519
 H        1.941925906    15.395093896    -7.212542089
 H        2.164393157    17.097670401    -7.692656373
 H        2.121086280    17.818092073    -5.276234774
 H        1.712535163    16.185945792    -4.756657239
 H        3.976154184    15.444664173    -5.996207312
 H        4.383146686    17.169653017    -5.944854404
 H        2.265234881    -1.020429377     0.123641434
 H        2.259496975     0.619808894     0.824474638
 H        2.266288960     0.405739555    -0.947839418
 H        2.241799559    -2.228020655    -7.487339512
 H        2.683799388    -0.503482160    -7.548040111
 H        1.180471895    -1.013107773    -6.730300940
 H        5.465623843    -2.127303555    -4.661076187
 C        5.177126788    -3.153075554    -6.550953782
 C        5.778406184    -0.736165038    -6.297094431
 H        2.860370358    -3.848689967    -4.797675149
 C        2.888218021    -2.925686416    -2.832977407
 C        0.916270280    -2.998345449    -4.368654607
 H        4.245255437    10.849589667     3.021100596
 C        4.070682793     8.786100564     3.644696127
 C        5.677458303     9.651214045     1.921728874
 H        1.273507586     9.325025197     2.976535564
 C        1.166872460    11.495022799     2.850119888
 C        0.012006031     9.896826452     1.315053749
 H       -5.967230582    11.943019430    -0.227260098
 C       -6.131406497    13.906062065    -1.140476295
 C       -5.880440428    11.746948253    -2.388275865
 H       -3.737709180    14.324878123     0.883555144
 C       -3.908233702    12.528305056     2.090718463
 C       -1.769775089    13.448140819     1.171304470
 H        0.016791099    -1.745646823    -1.742332467
 C       -2.094617094    -1.274031690    -1.534740078
 C       -0.441944386     0.086953433    -2.824253837
 H       -1.773891170    -0.942687897     1.429361569
 C       -0.209897608    -2.444563666     1.509033896
 C       -0.246118323    -0.324195921     2.842590942
 H        4.713018762    -4.055296388    -6.132847791
 H        6.246377044    -3.384605577    -6.665031060
 H        4.783442372    -3.015046061    -7.566869394
 H        5.751172278     0.180309731    -5.690280381
 H        5.421645144    -0.476760695    -7.302664881
 H        6.839880961    -1.001291387    -6.404429000
 H        3.976118503    -2.970882291    -2.700146843
 H        2.480704602    -3.811976622    -2.325419291
 H        2.515556266    -2.054034013    -2.273759632
 H        0.524912089    -3.093554447    -5.389057372
 H        0.424422589    -2.132779846    -3.901422378
 H        0.564092246    -3.884305948    -3.821188513
 H        3.141931248     8.935883628     4.211168393
 H        4.888537277     8.850614312     4.376893893
 H        4.068785128     7.750814810     3.279476260
 H        5.919588723    10.407975686     1.161736490
 H        5.825476129     8.667198381     1.457156119
 H        6.445871985     9.742096056     2.702162889
 H        1.987322652    11.700162040     3.548546507
 H        0.240748849    11.555492578     3.440027695
 H        1.125524208    12.322476913     2.127132398
 H       -0.048990321     8.885130790     0.885717639
 H       -0.083679280    10.616545848     0.489092586
 H       -0.895392397    10.013051137     1.925610054
 H       -5.966027494    14.485162067    -0.223151687
 H       -7.221740355    13.831695720    -1.262906434
 H       -5.768855884    14.506327342    -1.986872213
 H       -5.526201097    10.706470422    -2.402513473
 H       -5.500023619    12.238815749    -3.294852525
 H       -6.973101352    11.700095640    -2.498520996
 H       -4.998484103    12.430847492     2.017067017
 H       -3.711197987    13.060239158     3.032952563
 H       -3.487592211    11.520136153     2.216457137
 H       -1.246590942    14.021139847     0.392965121
 H       -1.251415818    12.481320065     1.269238182
 H       -1.599847909    13.983879391     2.115393199
 H       -2.294677029    -2.002672868    -0.739441983
 H       -2.380916658    -1.761414446    -2.477733541
 H       -2.789379603    -0.433082674    -1.401561562
 H        0.603874938     0.383519876    -2.995752524
 H       -1.039584167     1.008236004    -2.763596152
 H       -0.769876883    -0.427635666    -3.738278636
 H       -0.507372424    -2.990927000     0.604483670
 H       -0.676691633    -2.970660931     2.353850309
 H        0.874227211    -2.567998300     1.632067324
 H       -0.559188948     0.725493001     2.933626123
 H        0.836022002    -0.360957411     3.026422188
 H       -0.720101534    -0.860725791     3.676335671

