187   

Si        0.000000000     0.000000000     0.000000000
 C        1.863878062     0.000000000     0.000000000
 C       -0.685398941     1.706525595     0.000000000
 C        0.094886219     2.805489505    -0.371341228
 C       -0.445457658     4.091407119    -0.364083976
 C       -1.769355080     4.304622096     0.026567015
 C       -2.549670520     3.202134134     0.398245778
 C       -2.017738844     1.917206042     0.379383530
 C       -2.382966592     5.626116148     0.052425663
 C       -1.761407338     6.767095186    -0.288522519
 C       -2.390672975     8.082036019    -0.256892827
 C       -3.717569865     8.270696569     0.137821450
 C       -4.281787764     9.545648714     0.154003370
 C       -3.545655882    10.657016922    -0.266603321
 C       -2.217510324    10.465925456    -0.673802251
 C       -1.645601406     9.197403154    -0.659201498
Si       -4.260377611    12.353292317    -0.257800202
 C       -3.202212757    13.528639669     0.661377994
 C       -1.870403333    13.448627927     0.776472668
 C       -1.046784576    14.402795470     1.518195178
 C        0.339701715    14.200509379     1.558517179
 C        1.168144690    15.072137925     2.245705270
 C        0.639357283    16.219497708     2.872554851
 C       -0.752565509    16.424642743     2.827706205
 C       -1.576363836    15.513415579     2.179423323
 N        1.477412923    17.110719005     3.573644600
 C        2.909949687    17.094227977     3.230235584
 C        0.955767417    18.473586179     3.778979789
 C        3.199958272    17.465494793     1.765012324
 C        4.619650685    17.057553527     1.336089303
 N        4.799523713    15.629619984     1.060917060
 C        4.191097833    15.031545582    -0.038227174
 C        3.528118757    15.799262245    -1.021357628
 C        2.929527944    15.180484232    -2.107325530
 C        2.992992046    13.791262973    -2.284915142
 C        3.662731305    13.034335562    -1.318612040
 C        4.250582819    13.630898450    -0.212854477
 C        5.151821673    14.790751964     2.211196979
 C        2.341687165    13.193395080    -3.451345612
 C        2.335210879    11.881893907    -3.725636113
Si        1.535196545    11.095664671    -5.168825665
 C        0.460481408     9.671257694    -4.712138547
 C       -0.754687846     9.872311867    -4.049037736
 C       -1.566027319     8.791487192    -3.704713620
 C       -1.190693565     7.483822492    -4.023736675
 C        0.023934192     7.282669252    -4.691527557
 C        0.838233320     8.360033034    -5.029564574
 C       -2.000336397     6.318111135    -3.687833375
 C       -3.182260869     6.363106104    -3.050690357
 C       -3.987345283     5.192193070    -2.717666924
 C       -3.594885043     3.889820727    -3.037423136
 C       -4.396605550     2.799352926    -2.699441969
 C       -5.604555287     2.988423484    -2.020923064
 C       -5.998480553     4.294065004    -1.696043530
 C       -5.201143721     5.380808884    -2.043011009
Si       -6.679508118     1.565381269    -1.564145775
 C       -6.018051714    -0.032765477    -2.264578322
 C       -6.842421477     1.379135124     0.323847974
 C       -8.415570441     1.928393604    -2.258917439
 C        0.514443863    12.357298167    -6.168814440
 C        2.955306939    10.503421273    -6.303730476
 C       -4.468401059    12.931107830    -2.062765592
 C       -5.980097259    12.446980352     0.557673762
 C       -0.642626895    -0.886688785    -1.558951667
 C       -0.665140263    -0.922340612     1.526817122
 H        1.138661327     2.698901965    -0.676373328
 H        0.176503923     4.932225756    -0.666007887
 H       -3.588041634     3.352728036     0.692165233
 H       -2.674923389     1.092348889     0.670007812
 H       -3.429569892     5.635919756     0.373325504
 H       -0.720017404     6.760986755    -0.621904715
 H       -4.319851996     7.420398259     0.452260158
 H       -5.317096501     9.628918618     0.495494565
 H       -1.588126234    11.292202761    -1.024163408
 H       -0.609898273     9.071856179    -0.974518864
 H       -3.760862281    14.355219323     1.127297881
 H       -1.278482230    12.637655293     0.327472655
 H        0.778927822    13.340961877     1.047862970
 H        2.234114400    14.865132484     2.273708573
 H       -1.201665363    17.285429944     3.311591872
 H       -2.653538018    15.684197070     2.177932208
 H        1.719516259    19.107075585     4.258387432
 H        0.097399191    18.429870223     4.474265997
 H        0.634094060    18.962850594     2.845421466
 H        5.498383340    15.402618952     3.059414439
 H        5.989344788    14.122357629     1.931942995
 H        4.308672393    14.165532227     2.556822061
 H        3.470618622    16.878678154    -0.933999288
 H        2.402933542    15.793370035    -2.840350344
 H        3.723826861    11.950006451    -1.427600587
 H        4.759475631    13.004788308     0.511501919
 H        1.846958365    13.935126755    -4.092542864
 H        2.844538166    11.162018080    -3.064262590
 H       -1.097482280    10.871336248    -3.760453674
 H       -2.505117284     8.976988873    -3.181958351
 H        0.338204137     6.273399418    -4.949426891
 H        1.770356083     8.132240892    -5.553410075
 H       -1.572370312     5.359599776    -3.996072688
 H       -3.608439493     7.320392193    -2.731758833
 H       -2.651349483     3.714136476    -3.551180491
 H       -4.034963500     1.805364826    -2.976495203
 H       -6.934387511     4.503275328    -1.171123601
 H       -5.524550515     6.388176086    -1.786613115
 H        3.445836603    17.784816211     3.918235800
 H        3.299148325    16.077410822     3.467010855
 H        2.453728744    16.981718553     1.098346174
 H        3.060806398    18.551187645     1.616152660
 H        4.906018459    17.621702615     0.414380344
 H        5.357964278    17.365578645     2.111379996
 H        2.263005282    -1.029026213     0.039702819
 H        2.258120929     0.543606579     0.878004618
 H        2.274132167     0.481289210    -0.904805808
 H       -6.665287117    -0.884661607    -1.991645273
 H       -5.001232918    -0.252741631    -1.892044218
 H       -5.972168385     0.008346997    -3.367887149
 H       -7.649488210     0.603146397     0.470440911
 C       -5.563201395     0.859552375     1.003315550
 C       -7.288246870     2.667024815     1.039420121
 H       -8.771484837     2.857380904    -1.725843620
 C       -8.394273259     2.231280107    -3.768148326
 C       -9.436123505     0.808823320    -1.988908767
 H        1.248614572    13.164115357    -6.460509066
 C       -0.071354735    11.752936446    -7.458183317
 C       -0.627693993    13.024407312    -5.382129073
 H        2.479503073     9.815007440    -7.059391689
 C        3.640144928    11.648386949    -7.072298977
 C        4.040388601     9.717005244    -5.544440630
 H       -5.244799610    12.244753691    -2.510338908
 C       -4.987699231    14.376414483    -2.167718114
 C       -3.186265760    12.803443381    -2.902302311
 H       -6.249172639    13.544880934     0.536195301
 C       -7.087620921    11.688496448    -0.193852859
 C       -5.967166164    12.002367710     2.031043332
 H       -0.202460450    -1.923905986    -1.529165053
 C       -2.176659687    -1.015510792    -1.597164046
 C       -0.176754213    -0.204602827    -2.858697630
 H       -1.787646649    -0.951151719     1.409457478
 C       -0.166934844    -2.374959827     1.629555437
 C       -0.349286358    -0.188971529     2.842918652
 H       -5.206339277    -0.093030224     0.591361066
 H       -5.750299667     0.681076239     2.071875058
 H       -4.735996693     1.581645193     0.951444252
 H       -8.236009860     3.071130508     0.662859561
 H       -6.534446670     3.465780653     0.985477122
 H       -7.447085959     2.466375417     2.108856381
 H       -7.724518692     3.062092440    -4.034078367
 H       -9.397318115     2.525251596    -4.108384843
 H       -8.102918349     1.364542113    -4.375868450
 H       -9.569642227     0.588522627    -0.922242578
 H       -9.183520063    -0.131784756    -2.496032913
 H      -10.425923812     1.104819275    -2.366328853
 H        0.689032241    11.344618263    -8.136141208
 H       -0.607110237    12.525835113    -8.027352988
 H       -0.801105344    10.953861139    -7.262400179
 H       -0.328090940    13.406032224    -4.396572576
 H       -1.483296006    12.350349291    -5.233537109
 H       -1.013083271    13.887252218    -5.943579803
 H        2.961554590    12.188398350    -7.744716938
 H        4.442777652    11.246677348    -7.707427428
 H        4.113301902    12.386800338    -6.409847236
 H        3.652443726     8.886346402    -4.941051504
 H        4.633428372    10.358352006    -4.876499463
 H        4.750346906     9.273846570    -6.257181830
 H       -5.947044113    14.536236897    -1.659998495
 H       -5.154794850    14.640509338    -3.221870489
 H       -4.273872296    15.114567041    -1.775254323
 H       -2.843209228    11.763114326    -2.997975551
 H       -2.352586407    13.404442887    -2.511791480
 H       -3.370664361    13.160805838    -3.925710622
 H       -7.231045484    12.042343689    -1.223283287
 H       -8.051922641    11.830989014     0.315213397
 H       -6.922668143    10.604013144    -0.238272478
 H       -5.242869232    12.557001555     2.645086916
 H       -5.749614428    10.933609308     2.160347330
 H       -6.952630811    12.173659831     2.486381900
 H       -2.587936766    -1.573523728    -0.746794080
 H       -2.484942521    -1.561488543    -2.500247700
 H       -2.682112937    -0.038584467    -1.638190708
 H        0.914930720    -0.147306385    -2.953244113
 H       -0.575293490     0.814316137    -2.971929385
 H       -0.529617674    -0.773572267    -3.730452309
 H       -0.414451968    -2.983253372     0.750235441
 H       -0.637410980    -2.873067194     2.489695754
 H        0.916951789    -2.445575500     1.790417802
 H       -0.728228159     0.843271528     2.865286690
 H        0.724970166    -0.150749217     3.066462902
 H       -0.822373354    -0.708828796     3.687908886

