187   

Si        0.000000000     0.000000000     0.000000000
 C        1.865007951     0.000000000     0.000000000
 C       -0.673119265     1.713887907     0.000000000
 C        0.098889402     2.785865427     0.459925500
 C       -0.414849004     4.082458458     0.458187138
 C       -1.711736430     4.336358748     0.004038007
 C       -2.486051796     3.260657155    -0.450555777
 C       -1.975780380     1.965312671    -0.450547485
 C       -2.291072269     5.675487495    -0.016248260
 C       -1.658582512     6.789602411     0.389649659
 C       -2.239091289     8.128172472     0.368835216
 C       -1.465496142     9.205135630     0.822726841
 C       -1.977056403    10.500054777     0.821565402
 C       -3.279742716    10.746962657     0.370074352
 C       -4.053872267     9.674605271    -0.084466757
 C       -3.535710735     8.379957499    -0.087659824
Si       -3.957714027    12.456112494     0.367504736
 C       -5.780601922    12.402575042     0.233092485
 C       -6.522840956    13.099781039    -0.636233291
 C       -7.984045744    13.026774027    -0.709883777
 C       -8.650583116    13.808246434    -1.666578236
 C      -10.030516082    13.775622189    -1.777283422
 C      -10.792416348    12.975436860    -0.901632895
 C      -10.130631323    12.189014437     0.052448485
 C       -8.741563060    12.204235642     0.126897099
 N      -12.200117869    12.989148101    -1.070846071
 C      -12.844967926    14.301448395    -0.864213848
 C      -12.933174246    11.867117470    -0.465383947
 C      -13.249027436    14.647104033     0.579619887
 C      -12.068317162    14.834945363     1.550323542
 N      -11.336029444    16.105159680     1.423842749
 C      -12.076220956    17.293784375     1.425050887
 C      -13.230893940    17.395771120     2.233371705
 C      -13.975258004    18.563369465     2.247347489
 C      -13.582268358    19.685107351     1.502981699
 C      -12.423248238    19.591952279     0.727409734
 C      -11.673043376    18.424418699     0.687556782
 C      -10.146260431    16.043889623     0.565768094
 C      -14.406200361    20.893671067     1.554001178
 C      -14.127481702    22.020468414     0.885635102
Si      -15.116890000    23.555723829     0.911299151
 C      -14.022975009    24.993965558     1.255887325
 C      -12.795168260    24.805913258     1.899490083
 C      -11.961557909    25.892022437     2.163490901
 C      -12.339980875    27.187609850     1.800870673
 C      -13.573379163    27.373529685     1.162256337
 C      -14.406798914    26.290943878     0.893341031
 C      -11.500105435    28.353110211     2.057187625
 C      -10.299444097    28.313027529     2.659381778
 C       -9.458929577    29.477815434     2.916114761
 C       -9.833421705    30.773426993     2.550986174
 C       -8.998295082    31.858790285     2.816016669
 C       -7.771300829    31.671785132     3.460211659
 C       -7.393964376    30.373214973     3.828583653
 C       -8.226715391    29.291326631     3.557212135
Si       -6.657803520    33.093528745     3.817216862
 C       -7.535218426    34.724206079     3.592792113
 C       -6.029772538    32.925155852     5.606441024
 C       -5.160949549    33.037091173     2.642648708
 C      -15.936412066    23.775386016    -0.792397646
 C      -16.477825287    23.480600187     2.237453756
 C       -3.504389463    13.318579842     2.001841838
 C       -3.191640788    13.431884063    -1.073784100
 C       -0.650039376    -0.916049545    -1.537437516
 C       -0.627796936    -0.910771020     1.548684384
 H        1.120116431     2.649551410     0.826425493
 H        0.207973419     4.899742339     0.817269526
 H       -3.498919589     3.436416147    -0.808064962
 H       -2.627279303     1.166503937    -0.815617265
 H       -3.315259828     5.724397495    -0.397851899
 H       -0.634443751     6.740322183     0.770860201
 H       -0.452868181     9.030270549     1.180874161
 H       -1.327620533    11.300492576     1.186785240
 H       -5.076124146     9.811011500    -0.451920292
 H       -4.155762345     7.561728372    -0.449442577
 H       -6.249767281    11.725654955     0.967133180
 H       -6.087096627    13.785956015    -1.374130571
 H       -8.074460446    14.440285764    -2.343223853
 H      -10.534089861    14.353297314    -2.550230283
 H      -10.691482924    11.556887932     0.734384592
 H       -8.245187470    11.572704634     0.865498104
 H      -13.982547646    11.900816486    -0.806993091
 H      -12.924685958    11.856337565     0.635645004
 H      -12.502941059    10.917172126    -0.830864587
 H       -9.628599720    15.075860024     0.701690922
 H       -9.433899463    16.830860565     0.875028602
 H      -10.367468213    16.160156591    -0.507715634
 H      -13.538530352    16.557127101     2.850477425
 H      -14.874102186    18.613039650     2.862764918
 H      -12.094460305    20.450275449     0.138763411
 H      -10.782737032    18.393922595     0.068097726
 H      -15.284590027    20.790184203     2.204340849
 H      -13.239234644    22.088669591     0.235259774
 H      -12.448982141    23.814253634     2.210065200
 H      -11.008800711    25.720163320     2.661057301
 H      -13.886389729    28.374467919     0.872052977
 H      -15.356546455    26.496264504     0.392279423
 H      -11.920664135    29.303813933     1.716854730
 H       -9.879488877    27.361857243     2.999896563
 H      -10.785623620    30.946622744     2.052943233
 H       -9.345175807    32.848113561     2.505215372
 H       -6.447228516    30.166623699     4.335781534
 H       -7.915571142    28.290227456     3.849918793
 H      -12.182936652    15.100848314    -1.265918491
 H      -13.758012339    14.305710944    -1.507742410
 H      -13.862110131    15.573261901     0.555291937
 H      -13.922550556    13.867094277     0.981368074
 H      -12.441354997    14.773108448     2.601336872
 H      -11.346430119    13.993268184     1.440085717
 H        2.263805755    -1.029240609    -0.043918801
 H        2.276110619     0.477054617     0.906775833
 H        2.259298597     0.546704146    -0.876092019
 H       -6.875499788    35.571340167     3.852452134
 H       -8.426771964    34.787128437     4.242965761
 H       -7.867539798    34.869530420     2.549928486
 H       -5.469433474    31.946010193     5.646641076
 C       -5.056645382    34.042319755     6.023173891
 C       -7.178088379    32.852378886     6.629108329
 H       -4.556740763    33.961564850     2.873875816
 C       -4.255434744    31.810781858     2.855350867
 C       -5.572454744    33.094477141     1.159990974
 H      -16.555799214    24.715767423    -0.721635172
 C      -14.907817469    23.968091050    -1.921009607
 C      -16.875548294    22.613698699    -1.161855119
 H      -17.050643408    22.528593902     2.040136611
 C      -15.902993778    23.408259596     3.664046948
 C      -17.468504882    24.656202069     2.163308081
 H       -2.377204959    13.364834239     2.026899153
 C       -4.043279480    14.757014823     2.091474180
 C       -3.974693001    12.527599300     3.235355024
 H       -3.720706391    14.428585926    -1.089110941
 C       -1.685285654    13.696359738    -0.902946280
 C       -3.421247639    12.745116742    -2.432595405
 H       -1.774776156    -0.922686739    -1.442380758
 C       -0.291727643    -0.194600698    -2.849237890
 C       -0.178010046    -2.378459962    -1.624983156
 H       -0.159021042    -1.936326156     1.513741099
 C       -0.186356903    -0.228159148     2.856211016
 C       -2.157024419    -1.084933089     1.574208423
 H       -4.171927184    34.111879234     5.377222595
 H       -4.680849269    33.852572152     7.039220869
 H       -5.529122502    35.033124849     6.051408867
 H       -7.887598505    32.037038666     6.427262807
 H       -7.755354122    33.784163595     6.694015190
 H       -6.775879064    32.666859252     7.635285789
 H       -3.846199860    31.741899554     3.871178568
 H       -3.389412245    31.862342129     2.179309419
 H       -4.762138601    30.861867003     2.629806840
 H       -6.158065375    33.986586137     0.903446597
 H       -6.150802858    32.214540390     0.843330166
 H       -4.677915870    33.120438881     0.521310880
 H      -14.221969945    24.809175890    -1.746417903
 H      -15.422998161    24.183977445    -2.867683947
 H      -14.296606391    23.072873724    -2.099981777
 H      -17.694915627    22.472054732    -0.445450125
 H      -16.349758581    21.653107498    -1.259959888
 H      -17.348019205    22.806400308    -2.135523311
 H      -15.212447415    22.567678612     3.817995184
 H      -16.715562713    23.278330383     4.392431328
 H      -15.371810728    24.325946220     3.955808594
 H      -18.000593955    24.717888871     1.205607662
 H      -16.992244953    25.629551004     2.347682932
 H      -18.242489886    24.544311223     2.936506591
 H       -3.679824448    15.409251427     1.286975013
 H       -3.718924496    15.222120149     3.033617411
 H       -5.141808177    14.804268261     2.088179285
 H       -3.595223062    11.496253590     3.262434237
 H       -5.068704304    12.481793049     3.323790574
 H       -3.611643468    13.011368666     4.153572227
 H       -1.442615471    14.271241105    -0.000202413
 H       -1.309664197    14.287019293    -1.751477497
 H       -1.087648397    12.773975786    -0.886815243
 H       -4.479571092    12.554728616    -2.657038561
 H       -2.890970292    11.785452755    -2.519350436
 H       -3.042239073    13.380090578    -3.245734837
 H       -0.644257527     0.846218456    -2.883135905
 H       -0.761443941    -0.705877362    -3.701558772
 H        0.787468598    -0.184212896    -3.052163074
 H       -0.462892026    -2.980425977    -0.752457434
 H        0.908338029    -2.471131948    -1.755304369
 H       -0.634316251    -2.868105276    -2.497645928
 H        0.902983402    -0.138259697     2.955333863
 H       -0.525552826    -0.816398582     3.721019313
 H       -0.616883447     0.775984210     2.980094655
 H       -2.544844542    -1.653941844     0.719803262
 H       -2.695540197    -0.127347223     1.613706631
 H       -2.456782495    -1.641728878     2.473991199

