187   

Si        0.000000000     0.000000000     0.000000000
 C        1.865195000     0.000000000     0.000000000
 C       -0.679984506     1.710554940     0.000000000
 C        0.112094048     2.800536810    -0.374771782
 C       -0.412314099     4.093002142    -0.371522570
 C       -1.739166913     4.324838762     0.000106201
 C       -2.532997880     3.231014510     0.370493226
 C       -2.012420340     1.939931308     0.368844702
 C       -2.330857669     5.658511605     0.018677521
 C       -1.682813614     6.788524672    -0.311529176
 C       -2.275822585     8.121631566    -0.292493406
 C       -3.603370321     8.350044603     0.079754008
 C       -4.130413096     9.641099212     0.083964926
 C       -3.343567921    10.731192337    -0.301028822
 C       -2.012926906    10.505086775    -0.677694933
 C       -1.486034065     9.216483271    -0.667860515
Si       -4.012194355    12.445001503    -0.305215770
 C       -3.294308514    13.450667087    -1.653028235
 C       -2.882462513    12.948439562    -2.825093795
 C       -2.307243164    13.747956827    -3.907378517
 C       -1.913228144    13.104828444    -5.088808783
 C       -1.363121037    13.815152118    -6.143908374
 C       -1.236381072    15.219050098    -6.073396078
 C       -1.635008867    15.865467390    -4.886983759
 C       -2.138180896    15.132630584    -3.820275221
 N       -0.678055865    15.941654265    -7.143835913
 C       -0.777889950    15.346412657    -8.487867913
 C       -0.904391622    17.397546640    -7.150524863
 C       -2.226289894    15.207201058    -8.983489227
 C       -2.272475581    14.398098474   -10.289617457
 N       -3.638547517    14.219030525   -10.811086296
 C       -4.331292808    15.373112727   -11.219114625
 C       -3.625397123    16.492099886   -11.710752329
 C       -4.305143221    17.630624855   -12.113535527
 C       -5.705468194    17.686496543   -12.092770339
 C       -6.404740116    16.565734905   -11.635894194
 C       -5.738984208    15.423505504   -11.212085840
 C       -4.406558387    13.214372052   -10.055026146
 C       -6.374231451    18.913624158   -12.528793198
 C       -7.703683846    19.075280424   -12.549426157
Si       -8.595857265    20.578590942   -13.081420915
 C       -9.905075688    20.121213999   -14.290112236
 C       -9.804013819    18.928661245   -15.017201333
 C      -10.791705169    18.576794614   -15.933607518
 C      -11.896018901    19.410417379   -16.153552920
 C      -11.990142387    20.603162473   -15.430548200
 C      -11.005431532    20.956834486   -14.508995889
 C      -12.904034328    18.997300800   -17.124234658
 C      -14.009950894    19.698415762   -17.426407247
 C      -15.016543212    19.282901163   -18.397688564
 C      -14.920505884    18.090281292   -19.119285869
 C      -15.906070583    17.731377501   -20.038605118
 C      -17.015352083    18.555937979   -20.250755133
 C      -17.114766095    19.752234727   -19.527356318
 C      -16.126216745    20.110767406   -18.615099697
Si      -18.324087733    18.095583183   -21.460652723
 C      -18.178141793    16.310875759   -21.983283628
 C      -20.020385351    18.407857356   -20.655189431
 C      -18.174961336    19.199111358   -23.004458699
 C       -9.394288034    21.382640809   -11.552638154
 C       -7.418177841    21.835315476   -13.887116313
 C       -5.904369022    12.416701419    -0.500161419
 C       -3.581845749    13.271058590     1.353666351
 C       -0.619704754    -0.917679168    -1.547929782
 C       -0.650761570    -0.911543889     1.539737042
 H        1.157017090     2.682059758    -0.674508005
 H        0.226182853     4.924749510    -0.663657164
 H       -3.569324135     3.389370494     0.662896691
 H       -2.679746945     1.126304282     0.666636588
 H       -3.378973399     5.688997103     0.330634264
 H       -0.634583982     6.758257046    -0.622997297
 H       -4.238762742     7.517144592     0.374595508
 H       -5.172750591     9.757344245     0.392977129
 H       -1.351245067    11.321607155    -0.986889731
 H       -0.449005211     9.060652586    -0.959318080
 H       -3.235641749    14.528710748    -1.441048415
 H       -2.939392486    11.876522876    -3.063646608
 H       -2.028203478    12.023519894    -5.178054748
 H       -1.038076787    13.276779904    -7.029026603
 H       -1.543891996    16.942058907    -4.784966118
 H       -2.421750884    15.657438002    -2.906641801
 H       -0.469913110    17.845563316    -8.059730524
 H       -0.378793153    17.849950370    -6.290079056
 H       -1.970855443    17.673892089    -7.104662827
 H       -3.750072562    12.379334694    -9.757932571
 H       -5.187682375    12.787859928   -10.710207769
 H       -4.882729473    13.619239154    -9.146530624
 H       -2.541381976    16.474729344   -11.770706111
 H       -3.736211830    18.491289940   -12.466766117
 H       -7.496034578    16.580120417   -11.609987116
 H       -6.322904256    14.576164958   -10.866884645
 H       -5.674647773    19.698054990   -12.845340082
 H       -8.378011775    18.267598684   -12.217774872
 H       -8.961236510    18.241031098   -14.889620705
 H      -10.700101009    17.643477321   -16.486086394
 H      -12.838045349    21.268135293   -15.582652919
 H      -11.133458229    21.900694900   -13.972168679
 H      -12.700537967    18.040985790   -17.615357547
 H      -14.214557712    20.654522586   -16.936072222
 H      -14.069634255    17.428142703   -18.969383930
 H      -15.774547666    16.787212350   -20.574374469
 H      -17.959406390    20.435846822   -19.651126885
 H      -16.220087975    21.044708551   -18.064249178
 H       -0.184568451    15.972595835    -9.192235896
 H       -0.268489776    14.355401800    -8.471108931
 H       -2.850029940    14.717808339    -8.209456754
 H       -2.680639601    16.205245647    -9.134038814
 H       -1.652349556    14.884504460   -11.076562880
 H       -1.824397466    13.389164808   -10.138870166
 H        2.262901503    -1.029292181     0.052438647
 H        2.260426339     0.553458312     0.871356472
 H        2.276008459     0.468889232    -0.911155143
 H      -18.993475219    16.030798133   -22.673989343
 H      -18.237155783    15.636165429   -21.109934959
 H      -17.222595394    16.111821223   -22.499249366
 H      -20.048269966    19.509349443   -20.409564933
 C      -21.207546741    18.102400536   -21.585691156
 C      -20.200240062    17.628135292   -19.340050662
 H      -18.960694091    18.825589978   -23.722924213
 C      -18.451149631    20.687823112   -22.728022664
 C      -16.802049857    19.071547121   -23.689805279
 H       -9.904380874    22.318191612   -11.923750018
 C      -10.462682840    20.484412031   -10.904244892
 C       -8.366746537    21.793110442   -10.483127262
 H       -6.585784741    22.001771141   -13.143620502
 C       -6.798039699    21.304467626   -15.192675123
 C       -8.080166123    23.195203392   -14.172752638
 H       -6.301113918    11.829358130     0.377620518
 C       -6.539202737    13.818298342    -0.458390120
 C       -6.348066610    11.707431185    -1.792238131
 H       -4.019153111    14.309970384     1.307687681
 C       -4.193963711    12.547337992     2.565520387
 C       -2.062408711    13.400671363     1.563073539
 H       -0.135388012    -1.936228551    -1.514644852
 C       -2.146003361    -1.115675879    -1.572264867
 C       -0.190753661    -0.227604720    -2.855752095
 H       -1.775490252    -0.918938574     1.443169244
 C       -0.177475245    -2.372988458     1.633641413
 C       -0.295678144    -0.184105133     2.849193000
 H      -21.185169160    18.674913246   -22.521960168
 H      -22.152063827    18.365524585   -21.087500540
 H      -21.284649756    17.038439327   -21.846050610
 H      -19.415784289    17.840188189   -18.599375854
 H      -20.231206403    16.540339009   -19.486454316
 H      -21.152884626    17.903604727   -18.865564176
 H      -19.448101328    20.876420284   -22.310180875
 H      -18.399505101    21.259223071   -23.666383646
 H      -17.710696133    21.140784174   -22.053630715
 H      -16.559101629    18.045159755   -23.993397404
 H      -15.976289099    19.437267023   -23.062446788
 H      -16.781666948    19.676006651   -24.607972733
 H      -11.257610113    20.181094799   -11.600177203
 H      -10.961121451    21.022613713   -10.085534500
 H      -10.042666218    19.570775699   -10.461573420
 H       -7.616390287    22.504791711   -10.850595732
 H       -7.829526198    20.934685885   -10.054809813
 H       -8.874839647    22.288028868    -9.643235786
 H       -6.269801184    20.348715641   -15.072463948
 H       -6.058607793    22.020253240   -15.578143109
 H       -7.541149254    21.169299203   -15.991998871
 H       -8.460509989    23.692786958   -13.271685039
 H       -8.906968344    23.125821549   -14.893767808
 H       -7.346507543    23.884166672   -14.616085342
 H       -6.329964436    14.364803654     0.469971445
 H       -7.633716914    13.736680679    -0.525355060
 H       -6.227475246    14.453253768    -1.299619247
 H       -5.982390811    10.674361317    -1.871996677
 H       -6.031676442    12.239755753    -2.701118180
 H       -7.444757909    11.650208244    -1.834384755
 H       -5.289911458    12.498686211     2.536415570
 H       -3.935126935    13.080188924     3.492048949
 H       -3.816612385    11.521820437     2.687548638
 H       -1.556912888    13.955889304     0.761093510
 H       -1.560529875    12.427073515     1.660201265
 H       -1.855132333    13.946672962     2.494305806
 H       -2.524752110    -1.688112339    -0.716093323
 H       -2.437104190    -1.679827201    -2.470312381
 H       -2.699190199    -0.166761414    -1.615178700
 H        0.896770135    -0.118278798    -2.955353571
 H       -0.638594022     0.768997585    -2.979072761
 H       -0.519913357    -0.821550918    -3.720435767
 H       -0.455945494    -2.977412935     0.760775758
 H       -0.638548787    -2.861194574     2.504629568
 H        0.908211706    -2.463645567     1.770818158
 H       -0.651800966     0.855672805     2.878412023
 H        0.783216195    -0.169495652     3.053187020
 H       -0.764932429    -0.693535500     3.702861428

