187   

Si        0.000000000     0.000000000     0.000000000
 C        1.865211907     0.000000000     0.000000000
 C       -0.678757869     1.711080774     0.000000000
 C        0.112912742     2.800350431    -0.377723717
 C       -0.410640375     4.093173308    -0.374417589
 C       -1.736543126     4.326072882    -0.000090473
 C       -2.530103380     3.232916139     0.373067092
 C       -2.010222344     1.941562983     0.371481885
 C       -2.327648586     5.659924521     0.018777684
 C       -1.680456867     6.789774418    -0.313574232
 C       -2.274361653     8.122623911    -0.293736012
 C       -3.601865421     8.349271184     0.081829298
 C       -4.130146315     9.639139397     0.086925640
 C       -3.337443211    10.732721262    -0.278849598
 C       -2.007807623    10.509639166    -0.656295001
 C       -1.485391874     9.218431800    -0.666485936
Si       -4.034878187    12.435087453    -0.272060621
 C       -2.682815285    13.663785499    -0.285463178
 C       -2.578592415    14.708109949    -1.117605289
 C       -1.475219179    15.669651501    -1.092520990
 C       -1.473368973    16.725704786    -2.015336014
 C       -0.452700142    17.661808646    -2.032947856
 C        0.643539926    17.540722896    -1.150749757
 C        0.644124569    16.478341514    -0.226094614
 C       -0.411868499    15.577275708    -0.190529384
 N        1.671685390    18.496589215    -1.178813854
 C        2.004372046    19.094174167    -2.483336896
 C        2.853163242    18.237946803    -0.340927285
 C        2.391576502    18.062489513    -3.563345971
 C        3.314649833    18.676410742    -4.632862605
 N        4.750098214    18.342306069    -4.470449458
 C        5.247877718    18.652903817    -3.172487002
 C        5.304335937    20.013307596    -2.812023198
 C        5.778645757    20.381993127    -1.563553927
 C        6.237258869    19.417507095    -0.652786419
 C        6.200285100    18.072097401    -1.026047699
 C        5.720148088    17.687358299    -2.273352759
 C        5.065374339    16.987616862    -4.959475587
 C        6.729418475    19.856969638     0.655433825
 C        7.187858907    19.019930650     1.594372128
Si        7.817062568    19.487731725     3.245774334
 C        6.977719732    18.444693887     4.507249158
 C        5.740494182    17.856651158     4.215150127
 C        5.096052025    17.065244576     5.162329828
 C        5.664728255    16.851720513     6.424895175
 C        6.896340947    17.446256355     6.714833483
 C        7.546851740    18.236063873     5.767621420
 C        4.949981418    16.014346602     7.382508344
 C        5.383332431    15.726384365     8.621396530
 C        4.666709714    14.888615388     9.577400754
 C        3.435833080    14.295416072     9.285391932
 C        2.784779794    13.501322456    10.229338225
 C        3.355789728    13.277786792    11.486150936
 C        4.590753872    13.871193722    11.781444121
 C        5.235179727    14.668064920    10.839302596
Si        2.508725306    12.232152316    12.742534266
 C        1.116008801    11.247047949    11.988275782
 C        3.797237937    11.062790857    13.514560133
 C        1.800309505    13.343202859    14.116116145
 C        9.692859008    19.182876052     3.296063050
 C        7.479126048    21.319424361     3.623503566
 C       -5.173688579    12.651112910    -1.779824295
 C       -5.062292763    12.683477100     1.310801259
 C       -0.620234669    -0.916775061    -1.548402999
 C       -0.651996043    -0.911247960     1.539350118
 H        1.157100497     2.680968127    -0.679645358
 H        0.227571859     4.924228044    -0.669106357
 H       -3.565662803     3.392195440     0.667633083
 H       -2.677280536     1.128673885     0.671826288
 H       -3.375170927     5.690932097     0.332797509
 H       -0.633140755     6.759803687    -0.627955293
 H       -4.236399335     7.514948113     0.374481008
 H       -5.174816626     9.754329148     0.388845362
 H       -1.344976091    11.328396390    -0.955013180
 H       -0.450693655     9.062866719    -0.965908455
 H       -1.922825675    13.480823142     0.492631539
 H       -3.321369290    14.924067121    -1.896600827
 H       -2.296119977    16.823253661    -2.724138133
 H       -0.501367558    18.490418066    -2.732980252
 H        1.464592131    16.351359892     0.473211281
 H       -0.394332638    14.773194278     0.547201606
 H        3.568030431    19.077749486    -0.426514280
 H        3.390545129    17.313853598    -0.609627775
 H        2.546850563    18.188010963     0.719469932
 H        4.829540226    16.941770924    -6.037503639
 H        4.518713479    16.179177778    -4.449897368
 H        6.149512039    16.803887057    -4.861063537
 H        4.982894478    20.770163560    -3.524734223
 H        5.808394091    21.437680598    -1.292975795
 H        6.556695231    17.303844963    -0.337605890
 H        5.701069905    16.632330072    -2.531595043
 H        6.684981533    20.944362818     0.794797817
 H        7.228333012    17.931442881     1.414287908
 H        5.246020018    17.993939811     3.247758093
 H        4.137512375    16.611147071     4.917254864
 H        7.359046223    17.296328645     7.688545929
 H        8.507718039    18.674514193     6.050461618
 H        3.997979263    15.615601588     7.019593979
 H        6.334860868    16.124958701     8.985306485
 H        2.971828690    14.450054252     8.312893172
 H        1.823790801    13.064801288     9.943100117
 H        5.084908195    13.731328571    12.747068795
 H        6.192616276    15.122038373    11.087739411
 H        1.133465821    19.700012258    -2.821851355
 H        2.833842949    19.823136595    -2.327185476
 H        2.882865655    17.190960585    -3.088686153
 H        1.478894474    17.650224373    -4.031339920
 H        2.999012470    18.346878980    -5.647478158
 H        3.229831943    19.786302326    -4.639834565
 H        2.262979069    -1.029100767     0.054892770
 H        2.260332701     0.555686945     0.869969993
 H        2.275758542     0.466801714    -0.912342512
 H        0.644684655    10.586099306    12.737535995
 H        1.483911844    10.606468555    11.166105621
 H        0.326255240    11.900878699    11.578601081
 H        4.575441762    11.729225102    13.988514703
 C        3.220829981    10.155197592    14.615740787
 C        4.503611350    10.188317541    12.462859286
 H        1.256192025    12.648685158    14.819506926
 C        2.877967113    14.089557756    14.922830632
 C        0.786248109    14.370176422    13.579902178
 H       10.032130950    19.504934191     4.323290837
 C       10.054389043    17.697175072     3.120914977
 C       10.465717410    20.014029613     2.257083206
 H        7.924693413    21.901755870     2.765667684
 C        5.973802216    21.636385858     3.689421195
 C        8.144123250    21.804545198     4.923992116
 H       -5.482918674    13.736527857    -1.780121380
 C       -4.450940562    12.356688016    -3.107174244
 C       -6.450603181    11.794369013    -1.713225679
 H       -5.894919051    11.923576857     1.263701422
 C       -4.247983370    12.416452756     2.589330109
 C       -5.697512147    14.081876493     1.402281044
 H       -0.137563355    -1.936006723    -1.515096773
 C       -2.146827053    -1.112386118    -1.573472337
 C       -0.189642671    -0.226932986    -2.855805237
 H       -1.776588561    -0.918823820     1.441866149
 C       -0.178847814    -2.372742743     1.633946744
 C       -0.297691204    -0.183806314     2.849016556
 H        2.759896800    10.712391826    15.441544467
 H        4.024025457     9.551674393    15.063148983
 H        2.476772260     9.441959011    14.237041833
 H        4.988213794    10.772308012    11.667279546
 H        3.829264176     9.468503083    11.980198200
 H        5.299379862     9.596427910    12.937152095
 H        3.597841124    13.421004211    15.411621997
 H        2.407223630    14.673279393    15.727402329
 H        3.443820403    14.809310897    14.314609698
 H       -0.066237276    13.912191180    13.061984211
 H        1.239553805    15.099992202    12.893655554
 H        0.363342180    14.951960904    14.411494514
 H        9.567181322    17.040005084     3.855118455
 H       11.136523928    17.554800448     3.253482901
 H        9.814176191    17.312809276     2.120232133
 H       10.325617444    21.096483656     2.373280305
 H       10.205659989    19.754268574     1.220945394
 H       11.545458440    19.831760011     2.357126744
 H        5.424771813    21.360504846     2.778855235
 H        5.821195967    22.716102772     3.827349048
 H        5.472334638    21.145222275     4.536179196
 H        9.237490503    21.710342977     4.916090766
 H        7.767602102    21.286082748     5.817220214
 H        7.930515796    22.872267489     5.079396216
 H       -3.545626641    12.960481366    -3.258319549
 H       -5.114262054    12.575982714    -3.955388235
 H       -4.160707213    11.300842153    -3.208226566
 H       -7.076185910    12.011534308    -0.838174953
 H       -6.242797639    10.715169158    -1.720171346
 H       -7.079344724    11.988839291    -2.594296817
 H       -3.796061962    11.414879835     2.616356499
 H       -4.900139457    12.482218115     3.471766159
 H       -3.443779309    13.148608574     2.745300050
 H       -6.366214703    14.312026330     0.562956499
 H       -4.951394477    14.887426362     1.463422995
 H       -6.308693969    14.159413424     2.312713447
 H       -2.526792689    -1.684729486    -0.717814889
 H       -2.438564970    -1.675390758    -2.472019004
 H       -2.698431244    -0.162451141    -1.615816870
 H        0.898100002    -0.119476151    -2.955028293
 H       -0.635691884     0.770546324    -2.978905292
 H       -0.519531270    -0.819784320    -3.720953425
 H       -0.455355872    -2.976904548     0.760271577
 H       -0.641679547    -2.861293054     2.503757700
 H        0.906579128    -2.463244384     1.773320248
 H       -0.654851353     0.855631326     2.878359543
 H        0.781174532    -0.168084763     3.053056806
 H       -0.766427189    -0.693815185     3.702602916

