187   

Si        0.000000000     0.000000000     0.000000000
 C        1.865470469     0.000000000     0.000000000
 C       -0.677411144     1.711500304     0.000000000
 C        0.139010002     2.811674553     0.280393290
 C       -0.386064391     4.103879187     0.277342619
 C       -1.737665496     4.325441145     0.000841960
 C       -2.555261690     3.221539672    -0.276408541
 C       -2.033705322     1.930884750    -0.276793512
 C       -2.330203356     5.658821146    -0.013403957
 C       -1.658771952     6.796782828     0.231942888
 C       -2.250424204     8.130502993     0.217920137
 C       -3.602225049     8.352531430    -0.058583852
 C       -4.126160005     9.644751795    -0.061383902
 C       -3.310222826    10.743956611     0.225244435
 C       -1.954781626    10.523845686     0.503680957
 C       -1.431930557     9.233619777     0.494617858
Si       -3.982288767    12.454937760     0.226498159
 C       -3.118261031    13.536956269     1.426485573
 C       -2.572615500    13.078137983     2.560663356
 C       -1.874022218    13.906159763     3.546320481
 C       -1.353911833    13.279845582     4.689692077
 C       -0.683148450    14.009541419     5.657615219
 C       -0.525652608    15.399330001     5.506520951
 C       -1.019239751    16.027081073     4.357355307
 C       -1.659950221    15.276123128     3.375529729
 N        0.178726067    16.075101107     6.551052207
 C       -0.621965973    16.182032705     7.793332682
 C        0.797131583    17.353823765     6.159806613
 C       -1.786496995    17.189781066     7.724488403
 C       -3.063602648    16.699852577     8.434751867
 N       -3.975636403    15.871789460     7.613072878
 C       -4.241288447    16.387170044     6.321745969
 C       -4.590408006    17.748036891     6.194420586
 C       -4.857614432    18.288813233     4.946932350
 C       -4.784794768    17.504134607     3.787541405
 C       -4.476282523    16.148386519     3.923345796
 C       -4.245942669    15.583218555     5.171004160
 C       -3.671371942    14.432355359     7.684862891
 C       -5.075117270    18.116129577     2.489622142
 C       -5.031374285    17.447941407     1.330100867
Si       -5.375970939    18.123269616    -0.330620724
 C       -6.572856999    16.996153929    -1.154869359
 C       -7.710131195    16.578731236    -0.453168060
 C       -8.635548945    15.724755362    -1.050715069
 C       -8.442136079    15.263376922    -2.356181509
 C       -7.304353189    15.684043570    -3.056281440
 C       -6.382459414    16.545004053    -2.465526987
 C       -9.383513343    14.369172090    -3.021040189
 C      -10.509593052    13.893628633    -2.463004064
 C      -11.451599573    12.999276388    -3.127281380
 C      -11.264644348    12.544737377    -4.435186774
 C      -12.190799181    11.689940548    -5.032463554
 C      -13.329529906    11.275516488    -4.334621662
 C      -13.519534983    11.730170960    -3.022584229
 C      -12.590335131    12.578665044    -2.427187472
Si      -14.560725419    10.147541823    -5.109809564
 C      -14.318515864    10.032427132    -6.955742749
 C      -14.382747850     8.408065422    -4.357547843
 C      -16.304700122    10.800811399    -4.715531303
 C       -6.120407934    19.870496570    -0.248617035
 C       -3.728428818    18.226214557    -1.278206781
 C       -3.893347235    13.226079477    -1.503898932
 C       -5.814053208    12.388589116     0.752481854
 C       -0.656022945    -0.901718416    -1.542897279
 C       -0.612976500    -0.924421533     1.546893438
 H        1.203647521     2.701556387     0.504411675
 H        0.271664590     4.943496978     0.494933578
 H       -3.610848149     3.371949788    -0.494785738
 H       -2.719537885     1.109353463    -0.501984240
 H       -3.398954221     5.682207513    -0.245407682
 H       -0.589755534     6.773352845     0.463493753
 H       -4.259668994     7.513436170    -0.278062622
 H       -5.189649134     9.755042228    -0.292499175
 H       -1.268292243    11.346761931     0.730000481
 H       -0.375395154     9.083095122     0.708375642
 H       -3.083843757    14.603705170     1.159046006
 H       -2.605066830    12.015729079     2.844567810
 H       -1.475163133    12.203970370     4.819185292
 H       -0.257711209    13.515198002     6.528718372
 H       -0.908520278    17.099160209     4.220551607
 H       -2.015315232    15.779461176     2.474684607
 H        1.468047672    17.680199497     6.973400008
 H        0.084820649    18.166369803     5.950829983
 H        1.422097562    17.193528846     5.263513943
 H       -3.544237803    14.134388239     8.738327585
 H       -2.769354869    14.136203059     7.122293231
 H       -4.534513389    13.863488952     7.292869290
 H       -4.657116064    18.373802073     7.079895216
 H       -5.126453621    19.342046193     4.870604884
 H       -4.438057723    15.501119697     3.042492375
 H       -4.018974376    14.520993031     5.228249734
 H       -5.333775405    19.179579327     2.557141042
 H       -4.761975138    16.376529770     1.304750194
 H       -7.906828232    16.897946284     0.576206372
 H       -9.514613829    15.416944552    -0.487695137
 H       -7.136849096    15.337892650    -4.074185669
 H       -5.517681779    16.845030933    -3.063345090
 H       -9.110408082    14.095218163    -4.044150129
 H      -10.783049864    14.167755168    -1.439637446
 H      -10.388876249    12.855912235    -5.001826652
 H      -11.989897714    11.367629461    -6.057955228
 H      -14.391015128    11.439655310    -2.429005107
 H      -12.754311093    12.919675302    -1.406613527
 H       -0.999146305    15.166211295     8.044866989
 H        0.079188978    16.460132863     8.611431088
 H       -1.471638674    18.153758309     8.163467297
 H       -2.019983511    17.421709569     6.663947055
 H       -2.803538512    16.139172473     9.358119987
 H       -3.655918394    17.582270822     8.776640232
 H        2.263240636    -1.029722830    -0.041435534
 H        2.275102400     0.478352526     0.906848408
 H        2.261243938     0.543968033    -0.876909246
 H      -15.089529580     9.391133735    -7.419024686
 H      -13.333234393     9.606588299    -7.214135525
 H      -14.389589495    11.029470161    -7.427288711
 H      -15.121994049     7.759524590    -4.910713507
 C      -12.977129651     7.815677097    -4.567516985
 C      -14.724123905     8.347383351    -2.857974449
 H      -16.391292284    10.792325711    -3.589998901
 C      -16.513064659    12.249479765    -5.192672519
 C      -17.432560148     9.919441143    -5.280884635
 H       -5.388647590    20.490223142     0.346582760
 C       -6.280633560    20.521321786    -1.634236925
 C       -7.478451861    19.911927876     0.475168855
 H       -3.990224677    18.575432212    -2.318332793
 C       -2.755050851    19.250310828    -0.664813930
 C       -3.006217916    16.872893340    -1.392745618
 H       -4.330026321    14.264361018    -1.399831768
 C       -2.449298682    13.358787435    -2.017987195
 C       -4.733160010    12.470343046    -2.548135443
 H       -6.331743716    11.746424652    -0.017343872
 C       -6.002314928    11.733844801     2.132580748
 C       -6.496222479    13.763994924     0.757453338
 H       -1.780845224    -0.899851135    -1.447208175
 C       -0.294079583    -0.172897680    -2.849703259
 C       -0.194134129    -2.366539557    -1.640953329
 H       -0.116242555    -1.937004423     1.513572110
 C       -0.192914420    -0.228877643     2.854800838
 C       -2.136473479    -1.142321822     1.572259793
 H      -12.684919873     7.748137253    -5.623344163
 H      -12.937578044     6.790457866    -4.172181537
 H      -12.193400488     8.378796581    -4.040546549
 H      -15.745581708     8.676826607    -2.629337604
 H      -14.032531479     8.936129645    -2.238842362
 H      -14.649334685     7.310779990    -2.497988602
 H      -15.773180426    12.952048814    -4.782959718
 H      -17.497159276    12.615883776    -4.867173122
 H      -16.492813556    12.348629546    -6.286080183
 H      -17.391161550     8.880639346    -4.928651216
 H      -17.451480711     9.899959543    -6.378633583
 H      -18.409923276    10.312059654    -4.964268316
 H       -5.334853924    20.622887035    -2.181570249
 H       -6.683221469    21.539179498    -1.527453225
 H       -6.985408918    19.981272682    -2.282306428
 H       -7.449697389    19.490471801     1.489169883
 H       -8.271259021    19.389506055    -0.079320302
 H       -7.815827291    20.952514063     0.583341835
 H       -3.157155873    20.270691191    -0.632135335
 H       -1.837393944    19.305234010    -1.267642207
 H       -2.439027085    18.983258135     0.354074797
 H       -3.610895387    16.094129639    -1.878874093
 H       -2.675296994    16.480715770    -0.420389773
 H       -2.099592250    16.979772850    -2.005143926
 H       -1.802366906    13.949464639    -1.355200305
 H       -2.440157058    13.866264114    -2.992980192
 H       -1.961761790    12.386445570    -2.176809122
 H       -5.804179228    12.442383196    -2.304271483
 H       -4.397417936    11.436291986    -2.706193811
 H       -4.657902530    12.969567344    -3.524830029
 H       -5.597190945    10.714960772     2.192805645
 H       -7.073231214    11.652485776     2.366450218
 H       -5.552309365    12.318954921     2.947812142
 H       -6.450814410    14.276857191    -0.214762788
 H       -6.089956568    14.445471561     1.517498594
 H       -7.566390029    13.654343012     0.985465370
 H       -0.642984786     0.869458620    -2.875950399
 H       -0.766273914    -0.675985898    -3.705465285
 H        0.785025644    -0.165461886    -3.052581596
 H       -0.481624708    -2.972364957    -0.771969453
 H        0.891405413    -2.465423237    -1.773426356
 H       -0.654887569    -2.847252479    -2.516213948
 H        0.893206811    -0.106612433     2.955104297
 H       -0.515773541    -0.826163415     3.719534907
 H       -0.652121486     0.762685073     2.977360401
 H       -2.511061401    -1.705293304     0.708102345
 H       -2.700903482    -0.201101385     1.633008926
 H       -2.417347621    -1.724770590     2.461879104

