187   

Si        0.000000000     0.000000000     0.000000000
 C        1.865056355     0.000000000     0.000000000
 C       -0.684933708     1.708469943     0.000000000
 C        0.109495885     2.806695305    -0.344056467
 C       -0.422330066     4.096221884    -0.339918854
 C       -1.758747250     4.316746127     0.003074710
 C       -2.554650500     3.214696606     0.343705003
 C       -2.026716191     1.926715435     0.340975315
 C       -2.359312598     5.646334381     0.021691455
 C       -1.712435485     6.784552429    -0.281443751
 C       -2.317602838     8.112326575    -0.261362464
 C       -1.527430419     9.218955271    -0.600399728
 C       -2.062140346    10.504586622    -0.595040527
 C       -3.405696517    10.712149260    -0.258432699
 C       -4.196918610     9.609499520     0.080135742
 C       -3.655555162     8.324512894     0.082148852
Si       -4.122211137    12.406472073    -0.248212022
 C       -5.944253744    12.302827517    -0.343371638
 C       -6.812742707    12.929857211     0.460517653
 C       -8.267469695    12.814454115     0.343546821
 C       -9.079639708    13.519236978     1.243972951
 C      -10.460813561    13.443668148     1.175601807
 C      -11.084749785    12.608758430     0.222611419
 C      -10.270678009    11.899442418    -0.680305502
 C       -8.887964249    12.024318114    -0.627251462
 N      -12.487218984    12.544598113     0.167664912
 C      -13.223921688    12.670978336     1.438183689
 C      -13.078694035    11.587163040    -0.778203898
 C      -12.811858789    11.678236269     2.538627441
 C      -13.433877552    10.279872243     2.383748018
 N      -14.806197139    10.142851340     2.902518984
 C      -15.029679207    10.467361023     4.250304581
 C      -14.002747510    10.274413799     5.200524994
 C      -14.211164129    10.590712653     6.532645855
 C      -15.454154652    11.059397016     6.982400631
 C      -16.478669456    11.220121919     6.046434494
 C      -16.281682576    10.926233425     4.703060409
 C      -15.853190856    10.514081897     1.939561861
 C      -15.617221909    11.378100761     8.401225911
 C      -16.753653501    11.832066897     8.947028452
Si      -16.948357630    12.227852125    10.721740161
 C      -15.364904289    12.789861056    11.471073097
 C      -14.456261595    13.521925367    10.697470224
 C      -13.250640517    13.957968742    11.244090309
 C      -12.930327562    13.684562385    12.577083636
 C      -13.844719296    12.959185752    13.351602624
 C      -15.048754034    12.518332507    12.807334879
 C      -11.680110573    14.121681811    13.189856147
 C      -10.723895498    14.821732258    12.556241986
 C       -9.472422643    15.261083654    13.164226342
 C       -9.142897326    14.988592300    14.494273196
 C       -7.934254704    15.428630688    15.034060255
 C       -7.024493098    16.145632059    14.250784679
 C       -7.352394069    16.419512025    12.915869561
 C       -8.562073439    15.984688934    12.381929698
Si       -5.425238050    16.733326512    14.948236857
 C       -5.043451331    15.911391735    16.578523402
 C       -4.050182999    16.361057775    13.685481406
 C       -5.506490108    18.616344133    15.215458156
 C      -18.234189206    13.619744992    10.889338155
 C      -17.596386413    10.686204795    11.628824988
 C       -3.562298176    13.311664015     1.327611619
 C       -3.490570476    13.368161288    -1.763954094
 C       -0.616818758    -0.921180741    -1.547397161
 C       -0.650926667    -0.910241134     1.540576231
 H        1.161886223     2.696624973    -0.619756525
 H        0.217509926     4.934367295    -0.609803567
 H       -3.598329926     3.364284878     0.613895817
 H       -2.696188097     1.106608225     0.615497585
 H       -3.414634379     5.666549157     0.309975771
 H       -0.657500226     6.766088138    -0.569631390
 H       -0.483122573     9.074942863    -0.870299579
 H       -1.398027866    11.329997985    -0.865491915
 H       -5.251800709     9.714108895     0.354644973
 H       -4.290019619     7.482668203     0.353236403
 H       -6.297291557    11.658274826    -1.166024205
 H       -6.495914219    13.584519942     1.282870568
 H       -8.618876303    14.150012295     2.005250970
 H      -11.061660982    14.032266632     1.863238508
 H      -10.706921686    11.251349090    -1.432832088
 H       -8.281487362    11.476568324    -1.350845073
 H      -14.178937525    11.644514317    -0.736538137
 H      -12.774028401    10.542528060    -0.601730080
 H      -12.785291179    11.871154180    -1.806847291
 H      -15.551300758    10.228249315     0.918619090
 H      -16.097272780    11.589168246     1.945560166
 H      -16.772107832     9.942313362     2.170729509
 H      -13.038430816     9.879898850     4.892901586
 H      -13.395769168    10.456360583     7.245558217
 H      -17.456271538    11.581701239     6.368927872
 H      -17.106110339    11.065953115     4.012432640
 H      -14.701717872    11.213593329     8.988149485
 H      -17.660378096    11.977634832     8.341496621
 H      -14.654657562    13.769962149     9.649061912
 H      -12.557953989    14.519392653    10.619797827
 H      -13.614925427    12.736244265    14.391675978
 H      -15.722646052    11.957387943    13.460326024
 H      -11.559028828    13.835700657    14.238546035
 H      -10.846652136    15.106970477    11.507094905
 H       -9.831709698    14.428249030    15.123724611
 H       -7.732563963    15.185760967    16.080995813
 H       -6.680212338    16.975330219    12.256033676
 H       -8.799737075    16.208469809    11.343686224
 H      -13.074062448    13.715807965     1.804590476
 H      -14.312773716    12.589126648     1.229174510
 H      -11.706527760    11.583502347     2.561235173
 H      -13.082854542    12.100546356     3.528215576
 H      -13.423437599     9.963889254     1.317890187
 H      -12.800710294     9.528623010     2.915856993
 H        2.262827484    -1.029473194     0.047566248
 H        2.260445177     0.549420858     0.873814361
 H        2.275416472     0.473215162    -0.909160151
 H       -4.062594730    16.237289655    16.968535491
 H       -5.007933520    14.812199535    16.468527559
 H       -5.801584462    16.149281859    17.345022487
 H       -4.326110694    16.932094046    12.751567866
 C       -2.657604618    16.838118607    14.134688542
 C       -3.975015383    14.867734037    13.319485499
 H       -4.523740626    18.898825963    15.692556956
 C       -5.650552916    19.419087314    13.910187921
 C       -6.638715343    19.027544884    16.174513754
 H      -19.184687190    13.222644945    10.429462920
 C      -18.531227023    13.995762181    12.351422611
 C      -17.824163033    14.888248064    10.119809805
 H      -17.746921083    10.995665833    12.703233701
 C      -18.947105140    10.186356580    11.085903672
 C      -16.586772007     9.524818855    11.600127355
 H       -4.109921112    14.298435352     1.328979111
 C       -3.944187464    12.548215929     2.609054085
 C       -2.051925892    13.605981671     1.360138430
 H       -2.370087151    13.431555696    -1.646878437
 C       -3.789465206    12.643173069    -3.088217875
 C       -4.043834824    14.801925486    -1.839810855
 H       -0.127194558    -1.937162836    -1.513189855
 C       -2.141897541    -1.127769481    -1.572321574
 C       -0.191223824    -0.229612258    -2.855517165
 H       -1.775328873    -0.921853424     1.441219141
 C       -0.172875693    -2.369969943     1.638396468
 C       -0.300873369    -0.178903398     2.849100190
 H       -2.614495135    17.913475676    14.350428138
 H       -1.923284608    16.655392148    13.336604424
 H       -2.287229822    16.304194247    15.019880497
 H       -4.924576626    14.466148047    12.937575689
 H       -3.663049183    14.234616700    14.160684636
 H       -3.233543258    14.711469165    12.522996090
 H       -4.832516678    19.246795030    13.199439837
 H       -5.643186944    20.496748902    14.129937059
 H       -6.598083922    19.220375800    13.389773158
 H       -6.564463758    18.558735553    17.164141715
 H       -7.638596679    18.804802456    15.774954193
 H       -6.611249215    20.113164096    16.346345410
 H      -18.918972946    13.159157006    12.946498625
 H      -19.300004194    14.781108555    12.389275862
 H      -17.654007428    14.401361918    12.875794903
 H      -17.647935760    14.711991454     9.049989715
 H      -16.921929038    15.363787541    10.531015175
 H      -18.622689209    15.641096631    10.181128347
 H      -19.746350147    10.935689776    11.147401271
 H      -19.291199586     9.322775142    11.673252631
 H      -18.887619423     9.843147184    10.043450684
 H      -15.608700925     9.784786639    12.028236878
 H      -16.409938106     9.138365810    10.585631954
 H      -16.966411543     8.678983161    12.190200050
 H       -5.018192719    12.331533544     2.688787172
 H       -3.682051418    13.142795900     3.495405513
 H       -3.409268211    11.592678086     2.710320653
 H       -1.712128751    14.234272921     0.527069160
 H       -1.438302475    12.694080474     1.367130609
 H       -1.795761500    14.152414212     2.279595870
 H       -3.387712779    11.620745537    -3.125529613
 H       -3.328164782    13.184416644    -3.926499012
 H       -4.863564133    12.586499328    -3.312079768
 H       -3.792249570    15.412705814    -0.963237742
 H       -5.135868100    14.833175536    -1.964504881
 H       -3.620309143    15.323472413    -2.709998610
 H       -2.518258410    -1.699873000    -0.714921136
 H       -2.429069865    -1.695960249    -2.469095593
 H       -2.700105535    -0.181943478    -1.618516243
 H        0.895757659    -0.115323580    -2.955410753
 H       -0.643530885     0.764971156    -2.979018577
 H       -0.517882249    -0.825196023    -3.720007608
 H       -0.447424006    -2.976986442     0.766101786
 H       -0.634132667    -2.858025120     2.509350779
 H        0.912815483    -2.456629803     1.778005495
 H       -0.662039513     0.859222750     2.875977235
 H        0.777657562    -0.158850324     3.054434312
 H       -0.768893966    -0.688916165     3.703117081

