187   

Si        0.000000000     0.000000000     0.000000000
 C        1.865089975     0.000000000     0.000000000
 C       -0.672803184     1.713938969     0.000000000
 C        0.059948942     2.767221519     0.557726617
 C       -0.450420369     4.065115622     0.557296638
 C       -1.705050901     4.339068974     0.006266825
 C       -2.440792852     3.281951260    -0.545345014
 C       -1.934356932     1.985064779    -0.545492697
 C       -2.280656032     5.679563192    -0.017467666
 C       -1.685847121     6.779132023     0.475600424
 C       -2.266542931     8.117712343     0.449059628
 C       -3.522963002     8.381423003    -0.104761232
 C       -4.041919609     9.675138649    -0.110104204
 C       -3.310286310    10.735252889     0.436157114
 C       -2.052359627    10.475267685     0.993539125
 C       -1.540215419     9.180031960     1.002412623
Si       -3.993106380    12.443032346     0.430166756
 C       -2.639883594    13.634361008     0.733064183
 C       -2.649470751    14.621244204     1.637887427
 C       -1.536121901    15.551349487     1.841488528
 C       -1.659446550    16.548687139     2.821621748
 C       -0.634550866    17.451563861     3.051570943
 C        0.566688862    17.357776100     2.321252935
 C        0.692960816    16.366476684     1.338778773
 C       -0.358762384    15.489578455     1.093188123
 N        1.579425293    18.316606550     2.606332875
 C        2.121285419    18.201389413     3.981358269
 C        2.644748532    18.431711648     1.593976979
 C        2.662021977    16.805105147     4.341303510
 C        1.632176922    15.982498079     5.143190744
 N        1.814451905    14.525873262     5.025800733
 C        3.056244744    14.001159876     5.420719525
 C        3.749593165    14.585453539     6.503668193
 C        4.974627886    14.080798441     6.906015564
 C        5.533578922    12.952383027     6.288056834
 C        4.831539305    12.356724283     5.237312812
 C        3.610621486    12.861103593     4.807891956
 C        1.198213853    13.961521523     3.814851299
 C        6.831191143    12.463264753     6.754789111
 C        7.464790738    11.398047724     6.245191459
Si        9.086547948    10.797728378     6.838313944
 C       10.117145097    12.174794897     7.491780772
 C       10.062306523    13.427950739     6.869595026
 C       10.832172064    14.488602642     7.343582474
 C       11.682177082    14.319821000     8.440617646
 C       11.741147956    13.063218880     9.056690603
 C       10.969914777    12.002074939     8.588007793
 C       12.505743219    15.401853634     8.970191408
 C       12.540558916    16.649359156     8.471768064
 C       13.362849898    17.733314504     8.998962571
 C       14.210971570    17.571317628    10.097435308
 C       14.979715950    18.635838791    10.568131826
 C       14.912449256    19.889141856     9.951600114
 C       14.062834782    20.054074569     8.849251217
 C       13.300939669    18.988454879     8.378567943
Si       15.920800707    21.303606326    10.561252116
 C       16.620481223    20.966367255    12.257180939
 C       17.358707076    21.619344030     9.354601629
 C       14.815888739    22.853259473    10.602373415
 C        8.801809666     9.484033982     8.184695356
 C        9.999989877     9.987292631     5.379673307
 C       -4.761990809    12.811654381    -1.269671588
 C       -5.342357499    12.586797690     1.761652250
 C       -0.645196287    -0.926356010    -1.533308646
 C       -0.630086021    -0.904556798     1.551501391
 H        1.047310485     2.614620751     1.002466069
 H        0.141171390     4.867775904     0.993880511
 H       -3.420933004     3.473032068    -0.978224651
 H       -2.555930608     1.201370619    -0.987327107
 H       -3.269948632     5.743084676    -0.480544575
 H       -0.697177192     6.717454420     0.939434392
 H       -4.108923109     7.573180692    -0.538421044
 H       -5.029616292     9.820034665    -0.556572380
 H       -1.440089081    11.266025122     1.439224188
 H       -0.562610738     8.994652986     1.443802742
 H       -1.772108242    13.480505130     0.068906689
 H       -3.499239647    14.808899544     2.306692771
 H       -2.578601014    16.623261418     3.403346411
 H       -0.754828380    18.245055254     3.786519793
 H        1.607153063    16.272833300     0.759723997
 H       -0.247539572    14.737122984     0.310796123
 H        3.234582233    19.340554819     1.808585006
 H        2.191344385    18.572181395     0.597210785
 H        3.332491134    17.572856030     1.554991015
 H        0.212494449    14.432584706     3.639260804
 H        1.012594272    12.882999668     3.966898404
 H        1.803246992    14.102639621     2.904966979
 H        3.326253101    15.438064704     7.026373776
 H        5.504669761    14.561876145     7.729371289
 H        5.243342397    11.477759065     4.739488804
 H        3.100744432    12.369834974     3.985667942
 H        7.250710533    13.067392348     7.572530976
 H        7.021349881    10.802589403     5.433740226
 H        9.416511331    13.618670614     6.005463765
 H       10.766821506    15.454805521     6.846844616
 H       12.396598215    12.910537902     9.911837991
 H       11.058289253    11.045004218     9.108996311
 H       13.120174106    15.129548967     9.833219608
 H       11.926090118    16.920465916     7.608169604
 H       14.278937155    16.606761932    10.597213798
 H       15.624634623    18.447981544    11.431032853
 H       13.969553983    21.010588980     8.327312543
 H       12.648736366    19.135276063     7.519804020
 H        2.923152568    18.964324428     4.096554065
 H        1.315143176    18.506394990     4.685820540
 H        2.945338910    16.256708177     3.422421597
 H        3.600575497    16.892281109     4.919573757
 H        1.673773409    16.256075189     6.221805400
 H        0.595295066    16.226691583     4.813649388
 H        2.263071550    -1.029158808    -0.051697553
 H        2.277413037     0.470869235     0.909309222
 H        2.258590202     0.553211091    -0.872424417
 H       17.187237170    21.836348620    12.634387016
 H       17.304920104    20.100089802    12.253332088
 H       15.813854406    20.755968259    12.982887774
 H       17.960307991    22.458535598     9.809573327
 C       18.282209663    20.396473850     9.204769025
 C       16.901058409    22.065695715     7.954471314
 H       14.479577499    23.021466250     9.537946635
 C       13.557960101    22.657489257    11.467855944
 C       15.553292130    24.121229810    11.068576653
 H        9.825835834     9.130423784     8.499314859
 C        8.091626071    10.061178748     9.422460745
 C        8.012086949     8.262120433     7.682329083
 H        9.332117221     9.152654975     5.019059930
 C       10.217000395    10.964244983     4.210065827
 C       11.354665957     9.376946072     5.779415891
 H       -5.601970932    12.068666356    -1.397047341
 C       -5.358081281    14.226665336    -1.367201798
 C       -3.766718043    12.604000333    -2.425063159
 H       -5.640143922    13.675213714     1.784719404
 C       -6.600791111    11.757323526     1.450788201
 C       -4.828204014    12.198862565     3.160245581
 H       -1.770584941    -0.927500047    -1.445356713
 C       -0.274644623    -0.219757093    -2.849878400
 C       -0.179738259    -2.391879035    -1.604646732
 H       -0.163525415    -1.931242051     1.520485583
 C       -0.188635402    -0.218604585     2.857217448
 C       -2.159752459    -1.074755730     1.575062556
 H       18.721578115    20.062303159    10.153431701
 H       19.126788670    20.640880753     8.544578860
 H       17.776572086    19.532660305     8.749599294
 H       16.304101066    22.986335037     7.963553454
 H       16.322698363    21.293058994     7.428421381
 H       17.776532215    22.274878908     7.322453468
 H       12.947901260    21.796824489    11.158198252
 H       12.905990287    23.539223469    11.390938542
 H       13.786009821    22.533887931    12.534866070
 H       16.426644631    24.368109080    10.451181050
 H       15.887427668    24.062918902    12.112947361
 H       14.880476684    24.989193968    11.009743538
 H        8.624181190    10.907195431     9.878331733
 H        8.008286199     9.292352691    10.203227612
 H        7.065752720    10.395384224     9.207897641
 H        8.497708632     7.742408723     6.846776734
 H        6.988045721     8.513604861     7.372131509
 H        7.914340364     7.520867552     8.488593650
 H        9.284682274    11.404076143     3.830378305
 H       10.678784003    10.440047720     3.361516823
 H       10.895000524    11.791413014     4.465423728
 H       11.271409736     8.596297515     6.546287051
 H       12.072092974    10.127042529     6.142052516
 H       11.825133124     8.900945770     4.906956884
 H       -6.141530171    14.422008908    -0.623625333
 H       -5.826459249    14.370630156    -2.351546509
 H       -4.601346311    15.018174248    -1.268956089
 H       -3.329314118    11.595749562    -2.447270643
 H       -2.938668001    13.325727998    -2.412998402
 H       -4.276916919    12.737143217    -3.389852785
 H       -7.087667567    12.039440450     0.508635112
 H       -7.352675859    11.906418552     2.239701094
 H       -6.404476525    10.676302634     1.418946791
 H       -3.948473407    12.772759985     3.482269073
 H       -4.569476429    11.132672713     3.237577797
 H       -5.608461460    12.380473536     3.912787607
 H       -0.618703076     0.823297094    -2.895964973
 H       -0.742988392    -0.735876894    -3.699995659
 H        0.805835739    -0.219308165    -3.046531293
 H       -0.472339521    -2.984451546    -0.728218925
 H        0.906854924    -2.491002837    -1.728009412
 H       -0.633584940    -2.887448091    -2.475223227
 H        0.900785069    -0.131185798     2.957444029
 H       -0.530352498    -0.803224628     3.723530537
 H       -0.617201379     0.786878863     2.977339930
 H       -2.547301403    -1.647890539     0.723290871
 H       -2.696191337    -0.115677102     1.607037343
 H       -2.462917485    -1.625144870     2.477627542

