187   

Si        0.000000000     0.000000000     0.000000000
 C        1.865172113     0.000000000     0.000000000
 C       -0.671523047     1.714326477     0.000000000
 C        0.091680851     2.778972952     0.490939355
 C       -0.418075723     4.077002589     0.490397690
 C       -1.702071358     4.340283202     0.005770993
 C       -2.467714574     3.271855514    -0.479457171
 C       -1.961853747     1.974676183    -0.479653931
 C       -2.276308224     5.681544531    -0.014283674
 C       -1.650419894     6.788483970     0.420523251
 C       -2.224658870     8.129780269     0.400473340
 C       -1.458172633     9.197672852     0.886704536
 C       -1.963802504    10.494788170     0.887709484
 C       -3.252486195    10.754193334     0.403639074
 C       -4.018826681     9.690679904    -0.083703873
 C       -3.507402008     8.393249531    -0.087262604
Si       -3.921316511    12.468279710     0.404697720
 C       -5.728863772    12.430505601     0.139665550
 C       -6.405941142    13.157700274    -0.758524027
 C       -7.857295324    13.096364024    -0.937915675
 C       -8.455526745    13.907017969    -1.912709020
 C       -9.824910685    13.886776369    -2.122521551
 C      -10.647448006    13.000949455    -1.393250492
 C      -10.045880742    12.183047669    -0.416295190
 C       -8.678925840    12.253547685    -0.184012451
 N      -12.035916705    12.982537853    -1.608054815
 C      -12.521580250    13.357775053    -2.947598651
 C      -12.785118893    11.857054269    -1.022059878
 C      -12.041298265    12.403481189    -4.055422350
 C      -12.863001221    12.527814762    -5.348781599
 N      -14.306868099    12.220177807    -5.229319411
 C      -14.632527072    11.180102419    -4.329286204
 C      -13.982869987     9.937915206    -4.491464902
 C      -14.265972323     8.886675879    -3.636625221
 C      -15.221843994     9.020220666    -2.617275846
 C      -15.880593650    10.243116931    -2.476832302
 C      -15.602737938    11.311264040    -3.323315756
 C      -15.159037548    13.419289898    -5.186167119
 C      -15.482286287     7.875945323    -1.741044604
 C      -16.369481619     7.887950927    -0.738186096
Si      -16.735117537     6.492719712     0.384887329
 C      -18.551652216     6.221825369     0.472021596
 C      -19.388894799     6.713485977    -0.536826244
 C      -20.764949117     6.508840517    -0.471775814
 C      -21.335323669     5.800382939     0.593727488
 C      -20.495259923     5.305253720     1.595564517
 C      -19.117817006     5.511806690     1.536370343
 C      -22.782181649     5.612532028     0.616621464
 C      -23.454653264     4.958731483     1.579039584
 C      -24.901665537     4.771649900     1.600609775
 C      -25.740791363     5.266677380     0.599133434
 C      -27.119622766     5.064749518     0.659441215
 C      -27.690312462     4.366388643     1.728030305
 C      -26.850706089     3.868924390     2.734047477
 C      -25.474498604     4.067649797     2.668448995
Si      -29.508111773     4.091275424     1.822644564
 C      -30.427560348     5.149962573     0.592414934
 C      -29.892504432     2.262288268     1.461732650
 C      -30.080129304     4.492630639     3.593282492
 C      -15.893561299     4.893055596    -0.205070906
 C      -16.072333587     6.931227835     2.113999947
 C       -3.570627677    13.271182811     2.094071742
 C       -3.053960346    13.483658114    -0.949601291
 C       -0.648397409    -0.917610738    -1.537148749
 C       -0.630148574    -0.909198761     1.548632925
 H        1.102934910     2.635678497     0.881730839
 H        0.197754401     4.888404192     0.874121228
 H       -3.470670453     3.454641891    -0.860512432
 H       -2.606663031     1.181858827    -0.868607045
 H       -3.290076878     5.739093229    -0.421307083
 H       -0.636592380     6.731016162     0.827478340
 H       -0.456141378     9.013636941     1.269079144
 H       -1.321170912    11.287761503     1.280171810
 H       -5.029895353     9.836632596    -0.477896041
 H       -4.121645092     7.582435004    -0.474332379
 H       -6.253309950    11.737981840     0.819199433
 H       -5.916379243    13.862785702    -1.443057583
 H       -7.836953021    14.577836074    -2.509696019
 H      -10.257423069    14.557280822    -2.858699599
 H      -10.642580519    11.495460319     0.174879723
 H       -8.242455418    11.622174171     0.591920516
 H      -13.845749640    11.899177348    -1.328147710
 H      -12.762342524    11.943573466     0.079251831
 H      -12.394960509    10.868388636    -1.315478018
 H      -14.927336304    14.054311197    -6.059630596
 H      -15.049148772    14.026544632    -4.274290008
 H      -16.217704550    13.118493996    -5.287719044
 H      -13.262657879     9.809746544    -5.296315998
 H      -13.746492301     7.936790630    -3.768216981
 H      -16.631668673    10.371183748    -1.695459717
 H      -16.135301042    12.246572037    -3.182601937
 H      -14.877236424     6.994451008    -1.990020697
 H      -16.957981642     8.792753272    -0.510305593
 H      -18.998295205     7.268304895    -1.396148776
 H      -21.401703492     6.902321323    -1.262006179
 H      -20.913286536     4.751064103     2.433784620
 H      -18.511446298     5.102412110     2.349042870
 H      -23.313744302     6.053224880    -0.232051672
 H      -22.923729886     4.517341653     2.427542180
 H      -25.322292301     5.816542198    -0.241921890
 H      -27.724384452     5.475053260    -0.154024529
 H      -27.240562592     3.315906107     3.593324770
 H      -24.838640424     3.672205716     3.458278619
 H      -13.635039393    13.380713125    -2.907410139
 H      -12.207014199    14.403000322    -3.162897828
 H      -10.972551048    12.591689295    -4.277752752
 H      -12.073617300    11.358865650    -3.683857949
 H      -12.739961715    13.545542161    -5.778530316
 H      -12.452705382    11.820106397    -6.110044067
 H        2.263490982    -1.028831498    -0.055032961
 H        2.276862826     0.467590372     0.911319922
 H        2.258702406     0.556031229    -0.870587696
 H      -31.519635024     5.013259153     0.687521621
 H      -30.151113852     4.902891040    -0.447555108
 H      -30.212472362     6.221983524     0.753537501
 H      -31.017811751     2.179726411     1.473617371
 C      -29.396011050     1.818967235     0.073263690
 C      -29.332833204     1.292485097     2.517743708
 H      -29.515794614     3.785394757     4.268407786
 C      -29.725195837     5.929871479     4.015445341
 C      -31.584512171     4.260099623     3.819965512
 H      -14.801898342     5.146992935    -0.336700853
 C      -15.994153278     3.739922680     0.809298576
 C      -16.441571204     4.408044861    -1.559648746
 H      -16.283132088     6.034112928     2.765121383
 C      -14.554744286     7.185550640     2.128719010
 C      -16.791242026     8.144504119     2.730273677
 H       -2.447541531    13.294782662     2.199758661
 C       -4.089846579    14.716182543     2.192937654
 C       -4.140249867    12.450834168     3.265128703
 H       -3.581338349    14.481297727    -0.971918900
 C       -1.563163693    13.742251084    -0.667568024
 C       -3.187425024    12.837503069    -2.340884268
 H       -1.773338630    -0.924053459    -1.443770419
 C       -0.287821082    -0.198375884    -2.849587921
 C       -0.177178572    -2.380516941    -1.622187862
 H       -0.162118054    -1.935111942     1.515752129
 C       -0.190260727    -0.225462733     2.856154053
 C       -2.159600224    -1.081809566     1.571718587
 H      -29.816910939     2.409923500    -0.750313879
 H      -29.688959525     0.776328105    -0.116321242
 H      -28.300839646     1.852097158    -0.019347401
 H      -29.701430381     1.491499876     3.531941951
 H      -28.234268248     1.287151325     2.552068659
 H      -29.635691225     0.262500896     2.278808029
 H      -28.651816191     6.153506667     3.933720235
 H      -29.992514574     6.090250369     5.069670024
 H      -30.266563621     6.692435115     3.440021173
 H      -31.901968999     3.230724260     3.609099188
 H      -32.216555133     4.933415496     3.225943808
 H      -31.838928061     4.450193257     4.872926758
 H      -15.535697357     3.970654139     1.779272641
 H      -15.466302616     2.854907287     0.424709748
 H      -17.029693429     3.420252757     0.993004058
 H      -16.370450412     5.158793430    -2.358432847
 H      -17.492456377     4.088513634    -1.503642011
 H      -15.872763931     3.533613781    -1.905886386
 H      -13.966265461     6.325114066     1.784896743
 H      -14.218674632     7.396774882     3.154069238
 H      -14.259911282     8.054383802     1.522904438
 H      -17.881839010     8.020234066     2.790557804
 H      -16.592657539     9.080196938     2.190124865
 H      -16.444297915     8.304016061     3.761267753
 H       -3.660543203    15.386013099     1.436861722
 H       -3.825581846    15.145391850     3.169925019
 H       -5.184546222    14.783596754     2.113608269
 H       -3.779311220    11.412845673     3.285880038
 H       -5.238489493    12.421267331     3.272938647
 H       -3.837129885    12.899639671     4.221777668
 H       -1.383351070    14.278676036     0.272698642
 H       -1.134302241    14.368346610    -1.463611617
 H       -0.965121109    12.820404038    -0.650348771
 H       -4.227707776    12.654631676    -2.643154244
 H       -2.651742098    11.880256078    -2.418448895
 H       -2.753890822    13.495793294    -3.106591673
 H       -0.639730062     0.842583095    -2.885602257
 H       -0.756238101    -0.710790416    -3.701870861
 H        0.791736117    -0.188636282    -3.050676195
 H       -0.462523879    -2.980913973    -0.748745999
 H        0.909133558    -2.474011610    -1.752121375
 H       -0.633621458    -2.871251777    -2.494141063
 H        0.898945911    -0.135757979     2.956672343
 H       -0.530824812    -0.812812237     3.721003358
 H       -0.620785465     0.778913999     2.978417443
 H       -2.546710547    -1.650698086     0.716934487
 H       -2.697136372    -0.123564750     1.609609544
 H       -2.461492712    -1.637766707     2.471268622

