187   

Si        0.000000000     0.000000000     0.000000000
 C        1.865070888     0.000000000     0.000000000
 C       -0.683410936     1.708958694     0.000000000
 C        0.124736393     2.808512303     0.306165665
 C       -0.403707359     4.098860327     0.303114744
 C       -1.749093380     4.319217681    -0.003903746
 C       -2.558167490     3.216569659    -0.307452138
 C       -2.034057179     1.926839804    -0.303755223
 C       -2.342146675     5.652130868    -0.018575768
 C       -1.668549184     6.781691082     0.256204402
 C       -2.241788999     8.122316015     0.247123690
 C       -3.583767037     8.368957331    -0.056496185
 C       -4.086568871     9.669608303    -0.052279520
 C       -3.265707761    10.746259182     0.299636596
 C       -1.923567037    10.501032952     0.615516368
 C       -1.417320894     9.205261704     0.578964403
Si       -3.916210921    12.468399026     0.309511165
 C       -2.501264651    13.595463714     0.562500877
 C       -2.421673982    14.583821793     1.462033003
 C       -1.249630339    15.449354233     1.606459937
 C       -1.264059140    16.458312727     2.580578132
 C       -0.176005499    17.299128843     2.750364321
 C        0.991157978    17.112173470     1.982154195
 C        1.012530720    16.096927898     1.014523668
 C       -0.104266503    15.292282375     0.822680174
 N        2.078673558    17.999683856     2.192971690
 C        2.506181483    18.088214174     3.607177965
 C        3.221178662    17.855450159     1.273780488
 C        2.760860113    16.724305182     4.282541473
 C        1.866165233    16.567765796     5.526977892
 N        2.043813939    15.304904159     6.247016042
 C        1.352288030    14.153648477     5.848009898
 C        0.396791870    14.160339873     4.812774437
 C       -0.262411116    12.992266741     4.453814796
 C       -0.032362933    11.789056284     5.133654981
 C        0.900442509    11.791219691     6.176973042
 C        1.582436897    12.943061388     6.536002119
 C        3.390585492    15.119398739     6.808511932
 C       -0.743223252    10.571763731     4.731998257
 C       -0.572270742     9.388070171     5.336889186
Si       -1.386398662     7.801656808     4.943081243
 C       -2.080525520     7.051597497     6.474554515
 C       -2.309316930     7.832975413     7.613165633
 C       -2.834741736     7.257635459     8.767757729
 C       -3.154338321     5.894427243     8.808154992
 C       -2.931740563     5.119007595     7.666312911
 C       -2.402437667     5.690031542     6.510382169
 C       -3.702361234     5.337241007    10.040428425
 C       -4.045625062     4.049226185    10.211129912
 C       -4.593650600     3.490926949    11.442698413
 C       -4.817871148     4.261779003    12.586321575
 C       -5.343840147     3.686185519    13.742865717
 C       -5.650219916     2.322449973    13.782833792
 C       -5.425297293     1.546670789    12.637508105
 C       -4.906404832     2.125324810    11.482682685
Si       -6.344789657     1.547437722    15.300923256
 C       -6.193400559     2.676066994    16.778645134
 C       -8.185174436     1.147208657    15.024414935
 C       -5.412634972    -0.081716051    15.618723224
 C       -2.821161397     8.033268627     3.721032760
 C       -0.092315137     6.624673803     4.190069284
 C       -4.750075694    12.836785415    -1.355528650
 C       -5.186826708    12.672103559     1.709290787
 C       -0.656866558    -0.911537927    -1.536171793
 C       -0.611406182    -0.910710931     1.556112986
 H        1.184491710     2.698303323     0.552385945
 H        0.246507780     4.937636791     0.546973519
 H       -3.608842418     3.366232132    -0.548420885
 H       -2.713122105     1.105095787    -0.547727606
 H       -3.404441893     5.681543097    -0.274644508
 H       -0.603216645     6.741831667     0.507776232
 H       -4.246144377     7.544528354    -0.312111989
 H       -5.137531759     9.804781856    -0.321115459
 H       -1.235495036    11.302272936     0.906616286
 H       -0.366416071     9.038023113     0.812951799
 H       -1.671446276    13.403836125    -0.140215116
 H       -3.229662621    14.821136789     2.165530686
 H       -2.149308767    16.597518193     3.202164293
 H       -0.222665540    18.108804861     3.474240151
 H        1.896714970    15.921281412     0.409585117
 H       -0.067704016    14.515621977     0.057055643
 H        3.914979191    18.699463656     1.431583838
 H        2.865541987    17.929342484     0.230819416
 H        3.781322733    16.915293225     1.396580983
 H        3.892916018    16.089933060     6.949219000
 H        4.032195443    14.483777327     6.175607512
 H        3.307120686    14.653275414     7.807940783
 H        0.189764935    15.071925431     4.256456856
 H       -0.975844552    13.021607959     3.626573156
 H        1.101598661    10.870426853     6.727909750
 H        2.290737075    12.903441736     7.356843484
 H       -1.432596400    10.721537545     3.891237773
 H        0.140198237     9.285708919     6.174740197
 H       -2.084320813     8.904189569     7.635481890
 H       -3.001025361     7.878111375     9.646140839
 H       -3.172750862     4.057867634     7.671526370
 H       -2.251205077     5.035181966     5.646910449
 H       -3.824011004     6.058133983    10.854251264
 H       -3.924292943     3.328700107     9.397119142
 H       -4.583511733     5.324735106    12.582845298
 H       -5.498659080     4.340679122    14.605058690
 H       -5.645045899     0.475724644    12.610440803
 H       -4.740500039     1.507143145    10.602534433
 H        3.418536727    18.720751844     3.661542822
 H        1.720009917    18.662086468     4.150100090
 H        2.564006122    15.890053044     3.580278895
 H        3.824480456    16.621955612     4.556295936
 H        2.074852835    17.392039401     6.250474440
 H        0.792323758    16.676958835     5.244207672
 H        2.262671691    -1.030123050    -0.035716827
 H        2.274967021     0.483136445     0.904270075
 H        2.261359424     0.539042581    -0.879706806
 H       -6.569169764     2.185386093    17.694140642
 H       -6.768035479     3.608766091    16.641443846
 H       -5.138778550     2.952621916    16.959461035
 H       -8.558689199     0.737855930    16.007268652
 C       -9.015696065     2.397609068    14.681558043
 C       -8.429829974     0.081457101    13.941223888
 H       -5.590308329    -0.722196575    14.706260005
 C       -3.893719482     0.126169749    15.758726263
 C       -5.928301434    -0.855705510    16.844957557
 H       -2.394129552     8.587475395     2.833405718
 C       -3.418330109     6.709545908     3.213401263
 C       -3.957486461     8.884871681     4.316018618
 H       -0.675035817     5.770337797     3.737697402
 C        0.739600377     7.281689571     3.075057356
 C        0.867883538     6.038069307     5.240859417
 H       -5.606847877    12.106721197    -1.440179410
 C       -5.326809915    14.260595260    -1.440995930
 C       -3.810043908    12.602674582    -2.551697612
 H       -5.491530646    13.758641586     1.688176377
 C       -6.454395093    11.820471909     1.519172035
 C       -4.591981629    12.365376487     3.095498206
 H       -1.781558121    -0.912256671    -1.438486898
 C       -0.299198408    -0.189103609    -2.847680248
 C       -0.191575838    -2.375759704    -1.626695999
 H       -0.106980831    -1.919717213     1.538144417
 C       -0.201334406    -0.193928928     2.855860884
 C       -2.133326395    -1.138849574     1.578543992
 H       -8.961894063     3.181332260    15.448083177
 H      -10.078217835     2.130706459    14.589453528
 H       -8.728166488     2.850830154    13.721765031
 H       -7.937678437    -0.876222718    14.152532180
 H       -8.114747841     0.410121734    12.940755482
 H       -9.505105024    -0.136953007    13.866109060
 H       -3.442654763     0.625562847    14.889115056
 H       -3.387113208    -0.844968320    15.851806165
 H       -3.619795598     0.704651983    16.650925948
 H       -6.995980804    -1.103335363    16.785513967
 H       -5.760827230    -0.321707351    17.789711273
 H       -5.395540189    -1.813557387    16.935201512
 H       -2.688092578     6.067228347     2.702029842
 H       -4.203051007     6.917562871     2.470787039
 H       -3.892183687     6.117723733     4.007463762
 H       -3.624190541     9.865562129     4.682701982
 H       -4.476819910     8.383234238     5.144931333
 H       -4.719719125     9.078107685     3.547182933
 H        0.124836035     7.698436830     2.266601659
 H        1.406031002     6.539682381     2.614381890
 H        1.384676640     8.090496465     3.447421022
 H        0.353571324     5.504332178     6.052201450
 H        1.512548854     6.796746635     5.703936372
 H        1.539176792     5.306282200     4.769812011
 H       -6.077841197    14.473759251    -0.669429177
 H       -5.830911593    14.405043712    -2.407549170
 H       -4.554386703    15.040420096    -1.378684959
 H       -3.393226374    11.586185984    -2.585542131
 H       -2.969215478    13.308992659    -2.581081518
 H       -4.359393582    12.738692644    -3.494391516
 H       -6.977264111    12.015549268     0.574692489
 H       -7.177610354    12.041615784     2.318086767
 H       -6.256415899    10.740966976     1.579199068
 H       -3.715382496    12.977901178     3.347425320
 H       -4.296084834    11.311166263     3.205985999
 H       -5.338163704    12.560127090     3.878563883
 H       -0.651040084     0.851991398    -2.879542015
 H       -0.771329462    -0.698594809    -3.699785007
 H        0.779566713    -0.179899752    -3.052516237
 H       -0.475060346    -2.977007249    -0.753170563
 H        0.893826425    -2.472869824    -1.761709151
 H       -0.653714082    -2.862894059    -2.497707761
 H        0.883578374    -0.062731410     2.958690978
 H       -0.522910547    -0.782076254     3.727414739
 H       -0.668255579     0.795839419     2.963693409
 H       -2.500572272    -1.716576490     0.720952100
 H       -2.704755091    -0.201039776     1.623763691
 H       -2.413653104    -1.710815259     2.475204509

