187   

Si        0.000000000     0.000000000     0.000000000
 C        1.865500637     0.000000000     0.000000000
 C       -0.674378349     1.712828944     0.000000000
 C        0.140901811     2.807873408    -0.303119927
 C       -0.379320165     4.101912266    -0.300510363
 C       -1.724887847     4.330861859    -0.001256569
 C       -2.541447151     3.232100606     0.298412472
 C       -2.024823774     1.939356172     0.298447648
 C       -2.311282186     5.666997243     0.013176927
 C       -1.638309070     6.799212335    -0.253444531
 C       -2.220653754     8.136909609    -0.240122833
 C       -3.565352661     8.371632277     0.058382318
 C       -4.079314683     9.668312192     0.059252000
 C       -3.260648542    10.757642362    -0.253387678
 C       -1.911954136    10.524743546    -0.555520406
 C       -1.399116129     9.230940034    -0.543835905
Si       -3.905860769    12.480374672    -0.261660907
 C       -3.132920465    13.480831128    -1.587239032
 C       -2.704402689    12.954229089    -2.741982047
 C       -2.081895920    13.716087697    -3.826609299
 C       -1.683096384    13.023302504    -4.979977759
 C       -1.088743291    13.687630160    -6.040042847
 C       -0.935115485    15.086933647    -6.000124235
 C       -1.348220589    15.786323685    -4.858181445
 C       -1.902345088    15.100390619    -3.781120023
 N       -0.315676599    15.700128127    -7.125177604
 C       -1.063267836    15.541697442    -8.389650877
 C        0.168561678    17.075226020    -6.917868068
 C       -2.307259970    16.443068998    -8.503263441
 C       -3.493324621    15.738926729    -9.186966659
 N       -4.359398334    14.957305600    -8.284390948
 C       -4.853117483    15.615258054    -7.144324614
 C       -5.126030750    16.999334399    -7.201387326
 C       -5.612827934    17.664221892    -6.088188740
 C       -5.908286709    16.975388944    -4.904443894
 C       -5.668855351    15.598479040    -4.859210925
 C       -5.151296467    14.922083402    -5.955323952
 C       -3.938407234    13.558099823    -8.114640855
 C       -6.419916407    17.732180398    -3.761429893
 C       -6.735272272    17.180413088    -2.583297140
Si       -7.377126702    18.058608582    -1.116225651
 C       -6.337143114    17.533332346     0.307977390
 C       -4.972505479    17.303276614     0.093115553
 C       -4.150478332    16.904510281     1.144311980
 C       -4.670322689    16.735422499     2.431534456
 C       -6.034263086    16.970642546     2.643816055
 C       -6.860620565    17.365938722     1.593866836
 C       -3.843161227    16.319136888     3.558933837
 C       -2.526224360    16.065366999     3.476332600
 C       -1.684606086    15.648668467     4.591932502
 C       -2.180659361    15.469318050     5.885160426
 C       -1.337469688    15.069445799     6.922030114
 C        0.020832235    14.837774782     6.684749326
 C        0.519819689    15.013885823     5.386741428
 C       -0.323723763    15.412307268     4.354180492
Si        1.147827812    14.309684723     8.041139495
 C        0.359166218    14.532467501     9.716579664
 C        1.585741121    12.471959189     7.807001654
 C        2.747498786    15.334425822     7.924072648
 C       -7.254884540    19.944678389    -1.313181687
 C       -9.198992869    17.589794163    -0.845966004
 C       -5.790122163    12.515350820    -0.486845734
 C       -3.464048388    13.270689550     1.410964817
 C       -0.615280781    -0.921797114    -1.547408112
 C       -0.656730881    -0.902609260     1.542036467
 H        1.200950750     2.692191598    -0.545210983
 H        0.277512964     4.937278892    -0.536266981
 H       -3.592388670     3.388206403     0.534359013
 H       -2.709787169     1.122035014     0.540816537
 H       -3.375402116     5.697639567     0.264133445
 H       -0.573672034     6.767257399    -0.503760759
 H       -4.224780764     7.539659969     0.297485748
 H       -5.137145403     9.789870835     0.307388362
 H       -1.225385172    11.340435015    -0.806801128
 H       -0.348347999     9.069795231    -0.776757661
 H       -3.058642331    14.558916246    -1.382000148
 H       -2.780997729    11.880123031    -2.966062521
 H       -1.817506184    11.942384281    -5.034160925
 H       -0.726459246    13.132118347    -6.902187404
 H       -1.255152376    16.866949430    -4.806792135
 H       -2.216561131    15.662673132    -2.900389375
 H        0.772669479    17.373669455    -7.792008564
 H        0.836427470    17.094123992    -6.038118626
 H       -0.626601946    17.823234435    -6.774079540
 H       -3.552429962    13.157163295    -9.065202663
 H       -4.821760140    12.949106850    -7.845193228
 H       -3.166716000    13.423172269    -7.336313945
 H       -4.951802869    17.554870369    -8.117598261
 H       -5.786543358    18.738881084    -6.146272926
 H       -5.880007328    15.037189183    -3.946262710
 H       -4.961028792    13.856275391    -5.869980135
 H       -6.521628696    18.806100878    -3.962287796
 H       -6.630659213    16.092774255    -2.423009406
 H       -4.512363310    17.418392536    -0.895051289
 H       -3.092685626    16.729107529     0.953591326
 H       -6.456949939    16.843833206     3.638266354
 H       -7.917050082    17.535875427     1.816407340
 H       -4.374083066    16.220224882     4.509147037
 H       -1.999705727    16.168754575     2.521407708
 H       -3.234224672    15.643357452     6.095333268
 H       -1.781692663    14.948545822     7.913875114
 H        1.572899203    14.846803036     5.142712981
 H        0.081714791    15.544146542     3.352474000
 H       -0.354239301    15.755797738    -9.220790804
 H       -1.345811717    14.471326805    -8.498117939
 H       -2.612856640    16.786405708    -7.491793406
 H       -2.055260728    17.365854457    -9.055323800
 H       -4.142438767    16.498170750    -9.686781065
 H       -3.135003899    15.076319905   -10.004935653
 H        2.263438581    -1.028682604     0.061052257
 H        2.261206457     0.560694488     0.866364819
 H        2.275058647     0.460984243    -0.915779409
 H        1.058119473    14.253829176    10.525475376
 H       -0.545076080    13.909156894     9.829782607
 H        0.066051716    15.585422838     9.879876540
 H        2.230570509    12.196819882     8.690921790
 C        0.342255158    11.564136864     7.820501659
 C        2.387638144    12.187704230     6.524370788
 H        3.187481399    15.107188534     6.909567538
 C        2.482904644    16.849377705     7.993393236
 C        3.795847948    14.958896203     8.986412538
 H       -7.810186775    20.194742140    -2.263282600
 C       -7.914841821    20.717937931    -0.157507891
 C       -5.801525595    20.430278271    -1.466022781
 H       -9.528713775    18.145404543     0.079217560
 C      -10.105916435    18.025687221    -2.010855715
 C       -9.401436704    16.084762949    -0.594867900
 H       -6.217970225    11.883647565     0.343851551
 C       -6.373988733    13.931531238    -0.358448475
 C       -6.235947332    11.910788238    -1.830739877
 H       -3.753977364    14.359937519     1.330524522
 C       -4.233766855    12.666863521     2.597479499
 C       -1.955112632    13.191899352     1.703575384
 H       -0.118864690    -1.934570708    -1.516922272
 C       -2.138978819    -1.138525489    -1.570031641
 C       -0.197276402    -0.224329837    -2.854976948
 H       -1.781538793    -0.900390593     1.446020182
 C       -0.195647581    -2.367768356     1.639131660
 C       -0.294805375    -0.174886051     2.849469878
 H       -0.248259812    11.645079487     8.741938066
 H        0.644940414    10.509851771     7.742050374
 H       -0.333733600    11.752885427     6.973738263
 H        3.332614958    12.742269359     6.467702510
 H        1.816182406    12.397757549     5.608950587
 H        2.655446392    11.121763763     6.478497008
 H        1.782501819    17.203137963     7.223357279
 H        3.419035531    17.403451730     7.834357197
 H        2.094024274    17.173327475     8.967855927
 H        4.089413010    13.901673412     8.952909126
 H        3.467604440    15.182746874    10.010073240
 H        4.716722846    15.538388241     8.825902968
 H       -8.986757533    20.508778151    -0.049235019
 H       -7.830629882    21.800370329    -0.332819182
 H       -7.436244990    20.528449307     0.813661225
 H       -5.263795714    19.953385534    -2.296875431
 H       -5.204356055    20.276991382    -0.555570901
 H       -5.784063661    21.510726119    -1.666343318
 H      -10.086617726    19.106906116    -2.198201760
 H      -11.152346039    17.771998789    -1.789149837
 H       -9.860811554    17.519665038    -2.956020014
 H       -8.818453108    15.701934580     0.254321068
 H       -9.157652925    15.470379538    -1.473242823
 H      -10.455854160    15.880652163    -0.360457656
 H       -6.170089644    14.406519677     0.612179701
 H       -7.468011517    13.900761589    -0.458094949
 H       -6.007126936    14.613538267    -1.138800236
 H       -5.909270635    10.871811483    -1.970900823
 H       -5.881550959    12.487818529    -2.697339259
 H       -7.333055708    11.899116117    -1.893541894
 H       -5.322519777    12.767114139     2.506034281
 H       -3.956393794    13.192138306     3.524765478
 H       -4.003320078    11.606215185     2.765192107
 H       -1.337034145    13.689570368     0.945636093
 H       -1.591991424    12.159400127     1.807881595
 H       -1.732956004    13.683967077     2.663735449
 H       -2.511167979    -1.708351128    -0.709291584
 H       -2.422903417    -1.713511004    -2.463505263
 H       -2.703222349    -0.196608251    -1.621266631
 H        0.888676405    -0.102267913    -2.957015742
 H       -0.656411171     0.767575276    -2.975104982
 H       -0.521793246    -0.820015871    -3.720153729
 H       -0.480437445    -2.971947392     0.768128491
 H       -0.659463218    -2.849905420     2.511992766
 H        0.889433529    -2.467161521     1.774889101
 H       -0.644459364     0.867208550     2.876838952
 H        0.784380446    -0.166774393     3.051929836
 H       -0.766330021    -0.679320098     3.704838949

