187   

Si        0.000000000     0.000000000     0.000000000
 C        1.865170316     0.000000000     0.000000000
 C       -0.681118307     1.710116297     0.000000000
 C        0.116957451     2.804805138    -0.347066601
 C       -0.409745570     4.096382615    -0.343612017
 C       -1.745105363     4.322393621    -0.000126689
 C       -2.544903978     3.223896887     0.342721934
 C       -2.021783716     1.933909934     0.341682951
 C       -2.339897293     5.654667517     0.017638850
 C       -1.687439036     6.789373927    -0.286902792
 C       -2.285427417     8.120380315    -0.268116480
 C       -1.489089797     9.222163587    -0.608726081
 C       -2.016481529    10.510797595    -0.604758357
 C       -3.358469512    10.726128711    -0.266549720
 C       -4.155822844     9.628623162     0.073999127
 C       -3.621838797     8.340487924     0.076404272
Si       -4.061492691    12.425055475    -0.259242234
 C       -5.886451828    12.338457529    -0.332855501
 C       -6.737617952    12.979737024     0.477758362
 C       -8.195764953    12.878446406     0.379154036
 C       -8.984960295    13.600160264     1.288323193
 C      -10.367520584    13.538274796     1.237165698
 C      -11.005490989    12.769079098     0.242973406
 C      -10.221221629    12.042167258    -0.664106455
 C       -8.833515332    12.085024070    -0.577072686
 N      -12.423807728    12.750275144     0.249047347
 C      -13.067969489    14.059265521     0.019861921
 C      -13.055980350    11.643625525    -0.484840237
 C      -13.296379171    14.463431156    -1.447118087
 C      -12.008145431    14.730948194    -2.247537934
 N      -11.343882948    16.015266398    -1.973427563
 C      -12.121843865    17.178870224    -2.022811076
 C      -13.156969532    17.284403543    -2.979008248
 C      -13.936996451    18.426664828    -3.043603537
 C      -13.693083519    19.522108689    -2.202301684
 C      -12.649379187    19.427279453    -1.277618872
 C      -11.868088573    18.283135476    -1.185763983
 C      -10.277218499    15.950057904    -0.966608387
 C      -14.548761318    20.704314814    -2.313202821
 C      -14.409001827    21.805509296    -1.563488588
Si      -15.446325617    23.306311653    -1.659701912
 C      -16.023433542    23.775104839     0.023220648
 C      -16.008532249    22.838123277     1.063589176
 C      -16.445394415    23.192951705     2.337584810
 C      -16.916425280    24.485887743     2.600214087
 C      -16.935569080    25.416849645     1.557431829
 C      -16.495154171    25.066700860     0.281999990
 C      -17.363183570    24.809320546     3.951194377
 C      -17.831774352    26.008579464     4.336030934
 C      -18.278440322    26.331652888     5.687083150
 C      -18.259676406    25.401900835     6.729892214
 C      -18.696235384    25.753691293     8.007134555
 C      -19.155838465    27.047817158     8.270581205
 C      -19.175137024    27.982442291     7.226298843
 C      -18.744283923    27.626745696     5.951331983
Si      -19.735348916    27.528118891     9.950470092
 C      -19.265621842    26.253253920    11.228790410
 C      -18.964494888    29.212981977    10.387610438
 C      -21.629773065    27.713406787     9.939924375
 C      -14.400215702    24.721951828    -2.383448097
 C      -16.956574981    23.028369309    -2.781622024
 C       -3.476807506    13.339069419     1.302017837
 C       -3.448267824    13.373400825    -1.790638855
 C       -0.617294336    -0.919248340    -1.548180078
 C       -0.652888031    -0.909450477     1.539994182
 H        1.168524063     2.690667969    -0.624433325
 H        0.233575329     4.931792886    -0.613767157
 H       -3.587845461     3.377854328     0.613386503
 H       -2.693788798     1.116606821     0.618316819
 H       -3.395026769     5.679942560     0.306155190
 H       -0.632605665     6.765121524    -0.575282869
 H       -0.445675779     9.071920704    -0.878991423
 H       -1.347779329    11.331943783    -0.877155957
 H       -5.209491125     9.739409967     0.350264542
 H       -4.260846618     7.502382902     0.348744585
 H       -6.255964542    11.691764132    -1.146998772
 H       -6.403772978    13.636226680     1.291780884
 H       -8.504808676    14.207546164     2.056278359
 H      -10.969458840    14.068984903     1.972491525
 H      -10.686130360    11.434550249    -1.434739046
 H       -8.241867612    11.499122165    -1.282303826
 H      -14.139152897    11.646878875    -0.270371426
 H      -12.653256138    10.685885142    -0.108593570
 H      -12.916397261    11.678810810    -1.576425047
 H       -9.706537364    15.009148630    -1.079055430
 H      -10.643487106    16.000642876     0.071662230
 H       -9.563536360    16.776777373    -1.138290326
 H      -13.344019669    16.468291405    -3.670247216
 H      -14.743867204    18.478620368    -3.775231900
 H      -12.437741640    20.265241216    -0.611044835
 H      -11.071423517    18.249439813    -0.449878028
 H      -15.329892822    20.601324446    -3.077772327
 H      -13.606625755    21.880445810    -0.810491121
 H      -15.656570105    21.812056328     0.914637887
 H      -16.422154504    22.453391597     3.135680100
 H      -17.297007677    26.427885656     1.735077051
 H      -16.532043125    25.837160635    -0.493047311
 H      -17.292408699    23.984002903     4.665853197
 H      -17.902889152    26.833626591     3.621314583
 H      -17.903013515    24.388997861     6.552186961
 H      -18.658962366    24.982688358     8.781678618
 H      -19.523362337    29.008731919     7.373459979
 H      -18.768604652    28.365732897     5.152725597
 H      -14.054251809    14.017972794     0.542772373
 H      -12.480138749    14.850779196     0.536185477
 H      -13.886896798    13.685468727    -1.966220596
 H      -13.938211504    15.370032362    -1.462120517
 H      -11.277085045    13.906752210    -2.081380534
 H      -12.241710479    14.707000731    -3.339592545
 H        2.262960648    -1.029408783     0.049229436
 H        2.260690270     0.550790565     0.872862423
 H        2.275432077     0.471607885    -0.910040702
 H      -19.578713331    26.569297390    12.239919053
 H      -18.171228099    26.101203465    11.253002437
 H      -19.737546961    25.276177910    11.025012735
 H      -19.332094705    29.934374801     9.600945726
 C      -19.402449113    29.750814305    11.761482726
 C      -17.426557136    29.191180188    10.324037697
 H      -21.918419750    27.947690777    11.005320514
 C      -22.133678619    28.861231774     9.046872467
 C      -22.346809582    26.415493024     9.525300229
 H      -15.087485902    25.614300059    -2.449170838
 C      -13.214952386    25.101168686    -1.477766584
 C      -13.875479414    24.418896655    -3.797776931
 H      -16.547377283    22.645383876    -3.761221043
 C      -17.920312171    21.968959395    -2.216089664
 C      -17.751729549    24.314378255    -3.069490054
 H       -4.018040235    14.329354096     1.302282797
 C       -3.846940979    12.587835955     2.593965300
 C       -1.964475232    13.624495586     1.313225058
 H       -2.326379093    13.437715893    -1.687985524
 C       -3.763331378    12.637243177    -3.104845132
 C       -4.003278026    14.806206941    -1.871637923
 H       -0.129530034    -1.936132459    -1.514620160
 C       -2.142808106    -1.122758230    -1.573625759
 C       -0.190063560    -0.227521901    -2.855674591
 H       -1.777458459    -0.917076786     1.441661924
 C       -0.179682370    -2.370770249     1.636531587
 C       -0.299726169    -0.180183882     2.848921356
 H      -20.490105826    29.863042365    11.857902762
 H      -18.974780026    30.750483712    11.926760657
 H      -19.055109121    29.127303236    12.595963319
 H      -17.037514588    28.869695507     9.347198280
 H      -16.974220172    28.545788364    11.088624317
 H      -17.027394855    30.200965515    10.495929209
 H      -21.730344494    29.842170911     9.328319076
 H      -23.227383837    28.945822091     9.126259119
 H      -21.916875112    28.699368359     7.981558092
 H      -22.103663573    25.558163432    10.166053150
 H      -22.135534628    26.124489864     8.486161295
 H      -23.436117450    26.548998704     9.591664286
 H      -13.517163338    25.374959020    -0.457081110
 H      -12.692428521    25.976950955    -1.888054229
 H      -12.463875651    24.303132673    -1.399386400
 H      -14.673466435    24.224577377    -4.525813847
 H      -13.186053882    23.562565527    -3.823841289
 H      -13.310720103    25.279829502    -4.182869765
 H      -17.441777967    21.000402341    -2.016695020
 H      -18.729042601    21.772507412    -2.933674592
 H      -18.407080238    22.291456646    -1.284243544
 H      -17.158061663    25.091463986    -3.567459265
 H      -18.194558727    24.755402504    -2.165382205
 H      -18.592261508    24.093094263    -3.743204760
 H       -4.920968582    12.378285266     2.689826333
 H       -3.569368576    13.187488724     3.472306511
 H       -3.316525694    11.629712462     2.695857674
 H       -1.630614040    14.241748913     0.469512716
 H       -1.356153056    12.709003059     1.323241175
 H       -1.694034588    14.179429770     2.223588225
 H       -3.363543335    11.613781792    -3.137835089
 H       -3.310198569    13.170196942    -3.953061474
 H       -4.839714494    12.580574687    -3.316930870
 H       -3.741206137    15.424532140    -1.003442101
 H       -5.096591879    14.836750285    -1.984750331
 H       -3.589438260    15.320768597    -2.750876884
 H       -2.520402104    -1.694804606    -0.716693330
 H       -2.430915158    -1.689802869    -2.470834480
 H       -2.699260958    -0.175909211    -1.619316765
 H        0.897168984    -0.114808869    -2.954970669
 H       -0.640816460     0.767795573    -2.978916151
 H       -0.517068828    -0.822069226    -3.720760762
 H       -0.456907942    -2.976322857     0.764033855
 H       -0.641851222    -2.857960397     2.507485693
 H        0.905838148    -2.461150552     1.775292111
 H       -0.656663447     0.859366899     2.876457757
 H        0.778899632    -0.164644334     3.054199774
 H       -0.769694400    -0.688788292     3.702711563

