187   

Si        0.000000000     0.000000000     0.000000000
 C        1.865261771     0.000000000     0.000000000
 C       -0.684887375     1.708415244     0.000000000
 C        0.127621168     2.815329026     0.264442600
 C       -0.405934395     4.104184287     0.260892353
 C       -1.762233574     4.315249566     0.000041891
 C       -2.575909120     3.204529328    -0.261420429
 C       -2.045889705     1.917443901    -0.261678959
 C       -2.365034933     5.643931911    -0.014439332
 C       -1.701170946     6.789468186     0.215838830
 C       -2.306844390     8.117063246     0.200679186
 C       -3.664804375     8.321646129    -0.061044494
 C       -4.203312733     9.607421290    -0.065863658
 C       -3.389956151    10.718780862     0.181013408
 C       -2.029144384    10.518039722     0.442776025
 C       -1.496820368     9.231091184     0.456434078
Si       -4.095216986    12.417705367     0.175879089
 C       -2.763978676    13.643735562    -0.076113265
 C       -2.550533607    14.734421159     0.671465660
 C       -1.469784832    15.693224856     0.434692011
 C       -1.347295645    16.800354548     1.287805147
 C       -0.342823451    17.736082180     1.107043225
 C        0.612248673    17.569049941     0.080650445
 C        0.490864212    16.459772905    -0.775106840
 C       -0.549157384    15.553615910    -0.606586891
 N        1.622378364    18.538033005    -0.078499746
 C        2.233267389    19.051625464     1.161545572
 C        2.606830251    18.305886650    -1.147711233
 C        2.807572768    17.947745257     2.073517013
 C        3.952004427    18.472593928     2.959660689
 N        5.310754131    18.192922521     2.439889493
 C        5.537445739    18.709142824     1.134171915
 C        5.491398657    20.108542191     0.974478701
 C        5.703837742    20.673544466    -0.272093819
 C        6.000318655    19.873392428    -1.386609486
 C        6.069449183    18.489110607    -1.216636885
 C        5.850403384    17.907127635     0.027819094
 C        5.711528606    16.789834687     2.647467551
 C        6.216209672    20.521532219    -2.682542587
 C        6.504143474    19.859453947    -3.810188113
Si        6.783480420    20.611669248    -5.452967632
 C        8.343399672    19.966059556    -6.180027786
 C        9.341716798    19.435681409    -5.353775501
 C       10.524072356    18.946208285    -5.903456434
 C       10.742044565    18.984962678    -7.286799678
 C        9.745441041    19.521142386    -8.107594863
 C        8.558489805    20.007652891    -7.561835228
 C       11.996873680    18.459949276    -7.815137203
 C       12.327035769    18.433615362    -9.117532303
 C       13.581543248    17.908822186    -9.646625694
 C       14.579240448    17.372415936    -8.828695163
 C       15.763947086    16.881536122    -9.377399994
 C       15.973311475    16.910335713   -10.759653595
 C       14.973425811    17.446679108   -11.582439304
 C       13.794524077    17.940983991   -11.031490667
Si       17.530983489    16.266634411   -11.500183514
 C       18.524391787    15.284540859   -10.263964982
 C       17.075255168    15.176431827   -12.992467311
 C       18.589994001    17.723718468   -12.115735054
 C        5.314607963    20.146760300    -6.570134762
 C        6.886550554    22.506433303    -5.338105154
 C       -5.341338277    12.580071838    -1.253681480
 C       -5.008402583    12.716432819     1.816934824
 C       -0.655567944    -0.902667394    -1.542643233
 C       -0.608313371    -0.927510176     1.547110411
 H        1.195470198     2.712933316     0.476342769
 H        0.248636641     4.949335668     0.465977640
 H       -3.635111030     3.346797774    -0.467280475
 H       -2.729160824     1.090348658    -0.474310610
 H       -3.436905751     5.656696453    -0.233037744
 H       -0.629445143     6.777722400     0.434686738
 H       -4.315801433     7.473143382    -0.262426563
 H       -5.272528655     9.704907618    -0.272953636
 H       -1.348643512    11.351839484     0.644612874
 H       -0.437782213     9.092858812     0.665600525
 H       -2.121050956    13.414638070    -0.942463122
 H       -3.176949310    14.995232642     1.534590139
 H       -2.061223495    16.935864400     2.100516175
 H       -0.293207309    18.603663815     1.758972459
 H        1.203098743    16.296932014    -1.578002166
 H       -0.630027846    14.709999997    -1.293989027
 H        3.287876543    19.174957219    -1.219631144
 H        2.083980257    18.229363134    -2.117348482
 H        3.226479842    17.407652702    -0.995194703
 H        5.686598070    16.573691401     3.730265309
 H        6.756599934    16.654090297     2.317947167
 H        5.076541684    16.052620455     2.132124440
 H        5.298250170    20.741059473     1.838493330
 H        5.654053184    21.757051467    -0.383262377
 H        6.304191555    17.846079066    -2.066541175
 H        5.908405613    16.826822492     0.124389896
 H        6.122253419    21.614358245    -2.640709664
 H        6.586186171    18.759109763    -3.818969261
 H        9.228238129    19.385005765    -4.265996714
 H       11.287264163    18.531858691    -5.247145421
 H        9.889868915    19.562951731    -9.185568259
 H        7.815117610    20.413361093    -8.253564538
 H       12.684948945    18.071640199    -7.058398918
 H       11.638806738    18.821869564    -9.874084160
 H       14.439301279    17.334481521    -7.749904180
 H       16.508020977    16.475087337    -8.686726913
 H       15.081194917    17.494367488   -12.669802003
 H       13.030207154    18.354627131   -11.686605864
 H        3.028653757    19.779522307     0.878594000
 H        1.465652522    19.643957004     1.708444029
 H        1.999450592    17.524791535     2.698666838
 H        3.161658086    17.098960373     1.457153541
 H        3.865331633    19.572526466     3.106124026
 H        3.881207389    18.029322571     3.978299785
 H        2.262648915    -1.030055109    -0.037760501
 H        2.274992050     0.481508114     0.905151447
 H        2.261504525     0.540665929    -0.878731693
 H       19.436070108    14.867397063   -10.727879590
 H       17.936811990    14.436732459    -9.867321226
 H       18.841489192    15.905410677    -9.407768287
 H       16.521654639    15.849788013   -13.709788692
 C       18.298043296    14.604788514   -13.731749723
 C       16.133455011    14.019822802   -12.611526574
 H       19.549171636    17.264675862   -12.493265592
 C       17.949117915    18.507265898   -13.275167009
 C       18.944484056    18.711927987   -10.989378654
 H        5.500372879    20.660019889    -7.557694716
 C        5.228532625    18.632386509    -6.830740252
 C        3.963490451    20.639563192    -6.023118144
 H        5.950336751    22.836901376    -4.801514230
 C        8.102425155    22.979584795    -4.520634610
 C        6.915772499    23.198736561    -6.712434562
 H       -6.156274089    11.828792037    -1.043004080
 C       -5.987325812    13.974288724    -1.332886709
 C       -4.719683513    12.235717392    -2.618881662
 H       -5.331214819    13.797696846     1.799729046
 C       -6.267950642    11.847335789     1.982241008
 C       -4.099122980    12.505478163     3.041559939
 H       -1.780230127    -0.904688942    -1.444886407
 C       -0.298515623    -0.171365642    -2.849385321
 C       -0.189030717    -2.365833932    -1.642910873
 H       -0.104822564    -1.936824434     1.513656927
 C       -0.191513154    -0.229325097     2.854728373
 C       -2.130169754    -1.155388774     1.573904787
 H       18.985531933    15.378071355   -14.098237208
 H       17.970932721    14.040381702   -14.617154356
 H       18.879572747    13.903186322   -13.119063773
 H       15.206027171    14.357189404   -12.126858293
 H       16.604571014    13.283158417   -11.947368647
 H       15.826146412    13.471198902   -13.513244667
 H       17.738517182    17.888035895   -14.156217821
 H       18.631797659    19.300036862   -13.614622050
 H       17.016495969    19.011472344   -12.985279419
 H       19.483206750    18.246651650   -10.153895747
 H       18.062392456    19.220627994   -10.574361943
 H       19.602320980    19.503581214   -11.375934603
 H        6.147907273    18.211135387    -7.261566871
 H        4.427466107    18.419778331    -7.553130552
 H        4.989762580    18.054661768    -5.927404511
 H        3.918182915    21.728260464    -5.890708023
 H        3.694544380    20.175694426    -5.063188238
 H        3.157273690    20.382790556    -6.725277316
 H        8.141837604    22.560628283    -3.506004299
 H        8.076385058    24.072093596    -4.403005738
 H        9.059865778    22.745787596    -5.008804649
 H        6.025626635    22.996516357    -7.321536099
 H        7.799930475    22.931619728    -7.308480636
 H        6.955178347    24.290182326    -6.581998892
 H       -6.529484931    14.255574585    -0.420990562
 H       -6.723032790    14.002700159    -2.149211496
 H       -5.260309397    14.771192969    -1.546647971
 H       -4.272493027    11.232239876    -2.653260788
 H       -3.949242105    12.953829071    -2.931800531
 H       -5.492767323    12.253512945    -3.400119558
 H       -7.017644316    12.012859364     1.198163555
 H       -6.764621420    12.083337630     2.934639552
 H       -6.044806179    10.771540745     2.013773430
 H       -3.190041211    13.122055058     3.025992490
 H       -3.783057844    11.459024507     3.161210837
 H       -4.637579181    12.771368341     3.961925467
 H       -0.652232609     0.869383322    -2.874446609
 H       -0.769575210    -0.675995335    -3.704900320
 H        0.780262847    -0.158921446    -3.053708854
 H       -0.472519159    -2.973256315    -0.773713587
 H        0.896519277    -2.461023800    -1.777880086
 H       -0.650194521    -2.847382781    -2.517498673
 H        0.893927365    -0.100473659     2.954217980
 H       -0.510064398    -0.828561114     3.719728368
 H       -0.656586075     0.759435779     2.977675771
 H       -2.502446960    -1.718728350     0.709006899
 H       -2.700574871    -0.218025131     1.637843915
 H       -2.405934700    -1.741767523     2.462594434

