187   

Si        0.000000000     0.000000000     0.000000000
 C        1.864435252     0.000000000     0.000000000
 C       -0.682490157     1.708572969     0.000000000
 C        0.127450787     2.807702312    -0.300332580
 C       -0.400176852     4.098875081    -0.297478755
 C       -1.746942508     4.319467934     0.001578646
 C       -2.558298784     3.216069935     0.299090947
 C       -2.035087908     1.926334930     0.297192772
 C       -2.340272972     5.652377391     0.016083216
 C       -1.674262195     6.788969616    -0.250001141
 C       -2.268555034     8.121497650    -0.235231723
 C       -1.458160034     9.225490963    -0.532528311
 C       -1.982556067    10.515474175    -0.530329439
 C       -3.334561870    10.729889386    -0.235415607
 C       -4.145769595     9.629803791     0.062489518
 C       -3.615660604     8.340350802     0.065513611
Si       -4.042628564    12.427785625    -0.228365006
 C       -5.861397910    12.315473771    -0.366595680
 C       -6.754103660    12.930791720     0.419425282
 C       -8.204414436    12.803735683     0.261442522
 C       -9.047536119    13.494876982     1.143900033
 C      -10.425539738    13.405824960     1.034127536
 C      -11.011365467    12.572516742     0.057870155
 C      -10.168122113    11.877301273    -0.825270009
 C       -8.788092809    12.013631376    -0.731753666
 N      -12.420751801    12.504894809    -0.026988286
 C      -13.129511590    12.397516339     1.264285387
 C      -12.976231039    11.598422970    -1.047012813
 C      -12.681704372    11.187964003     2.100819451
 C      -13.512772718    11.086326137     3.389399895
 N      -13.140136651     9.939613458     4.234223681
 C      -13.373436580     8.648297640     3.730920701
 C      -14.316834931     8.427245206     2.705320658
 C      -14.537558562     7.148528570     2.217638568
 C      -13.881430779     6.037786662     2.764694304
 C      -12.971125129     6.253659913     3.803786516
 C      -12.718487769     7.530183652     4.286136467
 C      -11.871460592    10.149519036     4.954132514
 C      -14.152775612     4.710789080     2.210185753
 C      -13.586897186     3.579114407     2.650072118
Si      -13.900805666     1.906682278     1.983355034
 C      -12.321671508     1.037328154     1.616600662
 C      -11.097790179     1.716208605     1.613060335
 C       -9.914316795     1.035805413     1.332207022
 C       -9.925551434    -0.334567212     1.043971338
 C      -11.151023975    -1.008399960     1.045349383
 C      -12.336073764    -0.332250467     1.327230761
 C       -8.664530176    -1.011327737     0.754904396
 C       -8.559396818    -2.320024783     0.467900333
 C       -7.314611204    -3.021550129     0.175526691
 C       -6.069557851    -2.388128929     0.163382218
 C       -4.909040417    -3.107229296    -0.122858691
 C       -4.968878100    -4.475196417    -0.406259682
 C       -6.217282754    -5.111414668    -0.398010371
 C       -7.374073610    -4.392102424    -0.112645114
Si       -3.446830762    -5.438765993    -0.786011695
 C       -1.923325113    -4.566315519    -0.161314311
 C       -3.588669971    -7.158862051     0.015495544
 C       -3.302420516    -5.661591995    -2.670522456
 C      -14.856309476     0.906119212     3.290904189
 C      -14.950086340     2.005000752     0.398982668
 C       -3.523112317    13.320410883     1.367706016
 C       -3.374861859    13.400243930    -1.720744909
 C       -0.635919358    -0.929270130    -1.536168157
 C       -0.651592286    -0.914666092     1.539896951
 H        1.188434832     2.698181992    -0.541227121
 H        0.252051862     4.938099636    -0.532541275
 H       -3.610410771     3.366682619     0.533788482
 H       -2.715626937     1.103654393     0.536705239
 H       -3.404963391     5.676347110     0.266627333
 H       -0.609841348     6.765151749    -0.500875618
 H       -0.406341079     9.075956560    -0.768047983
 H       -1.303592521    11.338572131    -0.768732063
 H       -5.208470540     9.739393108     0.303530571
 H       -4.265935396     7.500403237     0.303284610
 H       -6.189917459    11.675150077    -1.203311942
 H       -6.464190570    13.582023930     1.253849199
 H       -8.614813362    14.124863176     1.921431465
 H      -11.055652849    13.983297231     1.704946241
 H      -10.577988838    11.225587663    -1.590701177
 H       -8.156461376    11.474340466    -1.439985044
 H      -14.074203110    11.705127967    -1.072490938
 H      -12.733539507    10.536323689    -0.880137447
 H      -12.605202240    11.899858799    -2.043033749
 H      -11.758398181    11.211028648     5.229840899
 H      -10.985661530     9.847916319     4.370527113
 H      -11.891180606     9.574958419     5.897995389
 H      -14.872215767     9.256050850     2.277523467
 H      -15.249357447     7.007348264     1.403523659
 H      -12.445840098     5.407013458     4.249445446
 H      -12.006000773     7.653033758     5.095824072
 H      -14.873128320     4.731164123     1.381500025
 H      -12.873927098     3.590158437     3.490946502
 H      -11.030146890     2.787825169     1.825507429
 H       -8.971755407     1.579808339     1.335733686
 H      -11.188981135    -2.073667178     0.824885758
 H      -13.261703246    -0.914993505     1.316164226
 H       -7.778973418    -0.371177946     0.785303438
 H       -9.452560025    -2.952684057     0.439473037
 H       -5.996841374    -1.323796531     0.380279302
 H       -3.960608644    -2.560596041    -0.108926146
 H       -6.327072057    -6.178130337    -0.612644699
 H       -8.334802313    -4.903651720    -0.111482734
 H      -12.966953801    13.343633164     1.828970118
 H      -14.222899413    12.350376919     1.062536490
 H      -12.773119437    10.255436086     1.510737515
 H      -11.604317424    11.270787566     2.344009454
 H      -13.401994462    12.014144981     3.996454025
 H      -14.599522404    11.013240436     3.154670774
 H        2.264594171    -1.029443221     0.011980972
 H        2.258527127     0.519561579     0.892437569
 H        2.274526801     0.505341402    -0.891832131
 H       -1.017491659    -5.174583345    -0.331709364
 H       -1.998125797    -4.372950930     0.924877414
 H       -1.775761100    -3.594847122    -0.668611480
 H       -4.490806899    -7.648022939    -0.454522991
 C       -2.372542853    -8.063482210    -0.252472132
 C       -3.830764774    -7.082422516     1.533933526
 H       -2.371801694    -6.277459986    -2.836813354
 C       -4.492597063    -6.420837463    -3.283510609
 C       -3.129134136    -4.326192210    -3.417075669
 H      -15.050488476    -0.104008676     2.827174941
 C      -14.039786422     0.687962475     4.577171848
 C      -16.213070831     1.532758973     3.656411993
 H      -15.843380468     2.642772994     0.662641484
 C      -14.197043013     2.685722040    -0.758863326
 C      -15.472134237     0.641646859    -0.087989892
 H       -4.071298070    14.306908938     1.363381484
 C       -3.935848453    12.546589581     2.633354796
 C       -2.014267978    13.615718709     1.440365971
 H       -2.257475975    13.462349494    -1.575890901
 C       -3.640863561    12.685295537    -3.057430747
 C       -3.925980505    14.834664283    -1.799509870
 H       -0.325355499    -2.004899602    -1.394391374
 C       -2.166857128    -0.882337512    -1.683724587
 C       -0.004141101    -0.423032400    -2.845548795
 H       -1.746514024    -1.111340464     1.347865781
 C        0.038602315    -2.269137587     1.780931042
 C       -0.542514546    -0.070648622     2.822545110
 H       -2.177851066    -8.225646711    -1.320444780
 H       -2.542765620    -9.059315935     0.182214305
 H       -1.447978940    -7.684471695     0.202883125
 H       -4.721215301    -6.496233311     1.802790789
 H       -2.978844231    -6.660241590     2.083557714
 H       -3.992660571    -8.090472060     1.941506391
 H       -4.625839363    -7.429056133    -2.871377150
 H       -4.339505391    -6.550701332    -4.364803762
 H       -5.445317368    -5.883350239    -3.172344361
 H       -2.237047189    -3.766978280    -3.104668248
 H       -3.998481852    -3.661607508    -3.311134794
 H       -3.013816240    -4.509839903    -4.494981164
 H      -13.071226449     0.199350633     4.400111127
 H      -14.591247405     0.032772384     5.266457781
 H      -13.847205545     1.620046724     5.125867937
 H      -16.887708976     1.642497411     2.797702870
 H      -16.114367203     2.520249368     4.129977843
 H      -16.739176552     0.895482797     4.381413005
 H      -13.820574650     3.687690708    -0.511029087
 H      -14.864926383     2.810833008    -1.622451021
 H      -13.340860088     2.094427406    -1.114798897
 H      -16.085221714     0.117502936     0.655947607
 H      -14.667143407    -0.037267403    -0.401913681
 H      -16.113997717     0.779947587    -0.970327323
 H       -5.011161527    12.328015767     2.684431576
 H       -3.696555631    13.134496630     3.530482240
 H       -3.402406150    11.590816840     2.740347557
 H       -1.654300450    14.250642374     0.620848267
 H       -1.399989128    12.704384463     1.455930792
 H       -1.781780833    14.155469242     2.370000164
 H       -3.239056977    11.662731309    -3.092187165
 H       -3.157976150    13.232112496    -3.879820055
 H       -4.708944255    12.631247621    -3.309049316
 H       -3.697148695    15.438698015    -0.912109363
 H       -5.014370463    14.867272393    -1.952406616
 H       -3.480029765    15.362952538    -2.654368030
 H       -2.707691084    -1.236010008    -0.796299092
 H       -2.486118813    -1.526571732    -2.516858794
 H       -2.538865481     0.125787714    -1.918600278
 H        1.089577938    -0.509426965    -2.864080226
 H       -0.258856606     0.622849260    -3.067944406
 H       -0.373544242    -1.015272281    -3.695287212
 H        0.003329525    -2.942073494     0.914169116
 H       -0.458319252    -2.800483076     2.606010603
 H        1.091146723    -2.163100786     2.075298708
 H       -1.065752016     0.893854800     2.755210002
 H        0.495342157     0.140298171     3.112366364
 H       -0.996103262    -0.608160091     3.667562142

