187   

Si        0.000000000     0.000000000     0.000000000
 C        1.865154513     0.000000000     0.000000000
 C       -0.689889420     1.705805661     0.000000000
 C        0.061741404     2.785090079     0.476197149
 C       -0.468487130     4.074803747     0.472741600
 C       -1.761634241     4.314729697    -0.000528170
 C       -2.515217424     3.231610421    -0.471126678
 C       -1.989010119     1.942699428    -0.468301254
 C       -2.356654333     5.646799153    -0.022843168
 C       -1.736316875     6.760512330     0.400783763
 C       -2.314235960     8.098901445     0.386246127
 C       -1.535338778     9.159579207     0.864124817
 C       -2.032478885    10.458045633     0.875161580
 C       -3.315056367    10.733491496     0.385689299
 C       -4.094248895     9.677043927    -0.095268086
 C       -3.600321202     8.372047636    -0.086631962
Si       -3.923242674    12.467095004     0.423635543
 C       -5.322441523    12.794171635    -0.702198909
 C       -5.542686102    12.158309445    -1.860643219
 C       -6.674774127    12.442253146    -2.743991091
 C       -6.809414585    11.715383570    -3.934907899
 C       -7.864861287    11.949492460    -4.802154554
 C       -8.804391322    12.966192408    -4.528099964
 C       -8.668785271    13.696867155    -3.332291947
 C       -7.632901401    13.416393686    -2.451076861
 N       -9.876538489    13.204301959    -5.408685684
 C       -9.677760503    12.860101339    -6.826175285
 C      -10.619483223    14.462791554    -5.226816063
 C       -8.575537400    13.685693494    -7.511202631
 C       -8.365262133    13.181032559    -8.948413307
 N       -7.239579299    13.806057970    -9.653179160
 C       -5.929294911    13.414825316    -9.318991701
 C       -5.655312718    12.399112924    -8.383204146
 C       -4.343690485    12.051458241    -8.089450956
 C       -3.267032994    12.656586475    -8.749798968
 C       -3.543559724    13.646272552    -9.699631635
 C       -4.846590286    14.024118476    -9.985759054
 C       -7.435936767    15.241194938    -9.922920445
 C       -1.899948267    12.258062475    -8.407009979
 C       -0.807641386    12.778748854    -8.982569742
Si        0.912584566    12.311567721    -8.585943478
 C        1.120014366    11.770432484    -6.840702272
 C        0.707017952    12.618168499    -5.805051688
 C        0.852332859    12.233525194    -4.473407498
 C        1.427133884    11.002134821    -4.144403293
 C        1.841751403    10.157034420    -5.180900150
 C        1.685798533    10.533210174    -6.512940403
 C        1.600468104    10.555685457    -2.766409327
 C        1.246357172    11.267285695    -1.683378820
 C        1.419249049    10.821809826    -0.305676858
 C        1.982159436     9.585131761     0.023929360
 C        2.127509993     9.201688031     1.355838380
 C        1.718079952    10.050979273     2.392290491
 C        1.166796386    11.293917429     2.062850323
 C        1.028352735    11.678039635     0.730871279
Si        1.925612976     9.510851518     4.141377408
 C        3.638092315     8.819117507     4.400046668
 C        1.653646280    10.915020149     5.397830235
 C        0.587905168     8.191053581     4.469465615
 C        1.426758515    10.918728062    -9.782030722
 C        2.038631157    13.811216985    -8.915885413
 C       -4.447273858    12.891568042     2.201693057
 C       -2.486474880    13.613107311    -0.084860795
 C       -0.643745819    -0.924048055    -1.535740505
 C       -0.622203493    -0.912323142     1.550746808
 H        1.078768701     2.659062948     0.857202092
 H        0.138888360     4.898607429     0.844387234
 H       -3.524750563     3.396203717    -0.842979626
 H       -2.625546179     1.137632049    -0.845783421
 H       -3.374961587     5.690365419    -0.417447557
 H       -0.714941515     6.711259333     0.792694395
 H       -0.524553475     8.973264729     1.229628355
 H       -1.379973955    11.240114528     1.276866817
 H       -5.107091701     9.832065774    -0.478835514
 H       -4.227342439     7.564872986    -0.459152731
 H       -5.998069196    13.592512450    -0.356848620
 H       -4.880397070    11.368747139    -2.243124394
 H       -6.076340659    10.945911291    -4.183473498
 H       -7.954582009    11.344696888    -5.699656974
 H       -9.374514596    14.479700175    -3.075722463
 H       -7.563129352    13.985774363    -1.522937548
 H      -11.406253142    14.553850228    -5.993631412
 H       -9.980502536    15.359553466    -5.276482395
 H      -11.132109651    14.441848468    -4.247531582
 H       -8.508768078    15.484348142    -9.980034528
 H       -6.997235337    15.485467349   -10.907661927
 H       -6.973230656    15.889461415    -9.160424923
 H       -6.461218138    11.894147462    -7.859178173
 H       -4.153390713    11.286126803    -7.334937178
 H       -2.724551098    14.133894545   -10.230288906
 H       -5.026550931    14.789032416   -10.734703886
 H       -1.851704198    11.498571956    -7.614755405
 H       -0.891254629    13.535360845    -9.778695905
 H        0.244609891    13.591207317    -6.001623203
 H        0.511015762    12.904317132    -3.686776281
 H        2.287402072     9.192008296    -4.947308955
 H        2.026737707     9.828778001    -7.276536361
 H        2.049487817     9.563798689    -2.659310294
 H        0.795034342    12.258399157    -1.791184895
 H        2.305872728     8.906101991    -0.762905607
 H        2.580233265     8.224837184     1.550373185
 H        0.835759952    12.002329235     2.828121259
 H        0.606409991    12.654159084     0.494819926
 H       -9.450962768    11.770260657    -6.891710439
 H      -10.647418008    12.992705282    -7.357151185
 H       -8.836873325    14.758025496    -7.509191983
 H       -7.629850271    13.617561797    -6.935112436
 H       -8.215444402    12.075914628    -8.959736588
 H       -9.282876464    13.362976155    -9.555597928
 H        2.262302117    -1.029635360    -0.047496107
 H        2.276823800     0.474081293     0.907879332
 H        2.259439005     0.549427882    -0.874298746
 H        3.788535381     8.501083000     5.446641218
 H        4.412982263     9.570408392     4.163680358
 H        3.820787913     7.940409146     3.756751049
 H        1.908348022    10.456127013     6.398987577
 C        2.597922356    12.111743179     5.183110507
 C        0.203532910    11.425949335     5.479379135
 H       -0.396847409     8.704076038     4.257736480
 C        0.687187133     6.967365464     3.541472776
 C        0.564993533     7.701085410     5.928466153
 H        2.449867048    10.582786290    -9.446259676
 C        0.474856667     9.710325729    -9.720541073
 C        1.538552274    11.380712307   -11.246378724
 H        1.911900151    14.051869862   -10.011287732
 C        1.637953192    15.059314091    -8.109608528
 C        3.525952426    13.509912330    -8.660923038
 H       -4.773099624    13.971019211     2.182924311
 C       -5.640527317    12.040543947     2.672164607
 C       -3.303431486    12.755449958     3.223058593
 H       -1.677253887    13.462594906     0.686097063
 C       -1.913726717    13.240330241    -1.463841750
 C       -2.869449801    15.103219919    -0.086453620
 H       -1.768410777    -0.940165998    -1.439878846
 C       -0.292687496    -0.201315008    -2.848859481
 C       -0.159822209    -2.382643962    -1.622068000
 H       -0.143444539    -1.933295236     1.520275642
 C       -0.189549500    -0.220520456     2.856502479
 C       -2.149650976    -1.101043070     1.574377019
 H        3.660595760    11.836512953     5.215743548
 H        2.450913999    12.855804620     5.979069651
 H        2.424490237    12.636839523     4.234155391
 H       -0.518283497    10.638477154     5.735278367
 H       -0.144163841    11.903039080     4.553390686
 H        0.117851527    12.187088862     6.268171155
 H        0.640487416     7.227482803     2.475208292
 H       -0.160474612     6.289445995     3.725962897
 H        1.596463342     6.375659425     3.706183903
 H        0.401459660     8.504649289     6.657744917
 H        1.480779328     7.169608296     6.217812001
 H       -0.261201006     6.988345600     6.070638883
 H        0.356966261     9.289564846    -8.712955348
 H        0.856801325     8.896038151   -10.351861883
 H       -0.532603798     9.945545256   -10.094982347
 H        2.279782132    12.175797281   -11.396819192
 H        0.582029574    11.729064112   -11.659700277
 H        1.858534057    10.541414604   -11.880775238
 H        0.584430791    15.343357706    -8.235790893
 H        2.231888193    15.924502974    -8.437067785
 H        1.828523847    14.948685896    -7.032823484
 H        3.915595367    12.686781095    -9.273600812
 H        3.740159473    13.271040935    -7.609239517
 H        4.136398469    14.391062878    -8.905321205
 H       -6.520575086    12.123183343     2.019768884
 H       -5.965866310    12.364021846     3.670700397
 H       -5.394141353    10.972315199     2.759849343
 H       -2.447278239    13.406609151     3.006250474
 H       -2.930946516    11.723953241     3.311011647
 H       -3.659064121    13.038510914     4.223999616
 H       -1.553209992    12.201574158    -1.515879995
 H       -1.057492842    13.884957497    -1.704813428
 H       -2.638990178    13.374595320    -2.280092147
 H       -3.229078956    15.463166272     0.885324453
 H       -3.635543830    15.345611829    -0.836406723
 H       -1.992013962    15.716917162    -0.335829356
 H       -0.655530707     0.835970901    -2.884086380
 H       -0.757408938    -0.718472274    -3.700296379
 H        0.786285884    -0.180392375    -3.051817260
 H       -0.436666518    -2.985194264    -0.747383714
 H        0.926809971    -2.466316983    -1.755731465
 H       -0.614916273    -2.877671437    -2.492278432
 H        0.898639618    -0.119858869     2.957088138
 H       -0.524864045    -0.808499110     3.722919961
 H       -0.629847471     0.780061901     2.975269556
 H       -2.530188030    -1.677942551     0.721990827
 H       -2.697358323    -0.148352758     1.607521172
 H       -2.445978940    -1.655908682     2.476397388

