187   

Si        0.000000000     0.000000000     0.000000000
 C        1.865204832     0.000000000     0.000000000
 C       -0.680992785     1.710144219     0.000000000
 C        0.119481943     2.806106199    -0.337234432
 C       -0.407659544     4.097517123    -0.333719599
 C       -1.745488283     4.322265170     0.000887790
 C       -2.547464030     3.222420357     0.334324159
 C       -2.024144239     1.932540395     0.332778965
 C       -2.340771939     5.654272328     0.018336007
 C       -1.686617004     6.790120317    -0.278181572
 C       -2.285168190     8.120881217    -0.259724581
 C       -1.486587442     9.223780234    -0.591438116
 C       -2.014499182    10.512101314    -0.587387179
 C       -3.358974809    10.725961519    -0.258000940
 C       -4.158468379     9.627383252     0.073515678
 C       -3.624137493     8.339429595     0.075733409
Si       -4.060311563    12.424836583    -0.251300784
 C       -5.883905303    12.353528071    -0.323435944
 C       -6.745426554    12.993858693     0.477505539
 C       -8.200861062    12.883030835     0.353139229
 C       -9.021680513    13.594283681     1.241582244
 C      -10.401626390    13.513408563     1.153652534
 C      -11.010718589    12.679867412     0.195866357
 C      -10.192290021    11.966384208    -0.692744618
 C       -8.808591821    12.087275868    -0.620330526
 N      -12.431511750    12.632588949     0.146788692
 C      -13.054824659    12.237125836     1.433514553
 C      -12.996807935    11.917625306    -1.010738676
 C      -14.566290914    12.517828711     1.466579339
 C      -14.897338718    14.022432526     1.397400638
 N      -14.558681819    14.800294852     2.601817447
 C      -13.284193965    15.402078963     2.631310688
 C      -12.872880012    16.165224780     1.516762737
 C      -11.629568948    16.771872195     1.506840970
 C      -10.775938571    16.691829057     2.619525788
 C      -11.199139666    15.964504271     3.732924057
 C      -12.436869126    15.329632367     3.749707406
 C      -15.054360282    14.217570292     3.855428178
 C       -9.472501538    17.353291444     2.551683763
 C       -8.574267376    17.347486611     3.545706475
Si       -6.946167029    18.173589046     3.461233662
 C       -6.968889880    19.659457892     2.378589810
 C       -8.141970445    20.410386495     2.243953397
 C       -8.170725982    21.538722185     1.425901812
 C       -7.027092792    21.949793208     0.735382442
 C       -5.851180490    21.201804436     0.879013915
 C       -5.820044390    20.071822052     1.692352218
 C       -7.011335158    23.123687764    -0.131232560
 C       -8.068331421    23.923185867    -0.353618861
 C       -8.055228623    25.097453526    -1.219592982
 C       -6.915407914    25.509635252    -1.914646175
 C       -6.948036190    26.639310966    -2.732152535
 C       -8.126297509    27.378185566    -2.877640969
 C       -9.271433699    26.966163263    -2.182510396
 C       -9.234121493    25.841668492    -1.362861032
Si       -8.186200924    28.871388397    -3.952575487
 C       -6.682310246    28.988176981    -5.049971539
 C       -9.766609249    28.781506398    -5.009858974
 C       -8.273086318    30.431648124    -2.865540634
 C       -6.424616220    18.679875181     5.216550524
 C       -5.695865283    16.907150063     2.785616215
 C       -3.467060663    13.320429417     1.317429338
 C       -3.467862127    13.391681605    -1.778879034
 C       -0.616464373    -0.920343320    -1.547900207
 C       -0.653425367    -0.907998651     1.540580601
 H        1.173036385     2.693067256    -0.607256228
 H        0.237303215     4.933917673    -0.596797606
 H       -3.592387309     3.375385043     0.597727870
 H       -2.698024452     1.114209931     0.601550115
 H       -3.397947525     5.678502874     0.299211324
 H       -0.629791158     6.767097407    -0.559250174
 H       -0.441390069     9.074561280    -0.854896990
 H       -1.344926963    11.334688823    -0.853268811
 H       -5.214555673     9.737756678     0.341404319
 H       -4.264844893     7.500250220     0.340407394
 H       -6.247786035    11.709584513    -1.143301479
 H       -6.426226727    13.649269320     1.299032191
 H       -8.573885559    14.238751415     2.000652565
 H      -11.022021286    14.109748318     1.824178697
 H      -10.621164978    11.308219067    -1.441172020
 H       -8.196033080    11.532598330    -1.332211055
 H      -14.075007597    12.140691738    -1.081321385
 H      -12.866251074    10.825267170    -0.972675919
 H      -12.539114750    12.303559775    -1.939405315
 H      -16.105345750    13.908322754     3.723030475
 H      -15.043451239    14.993544307     4.642923118
 H      -14.475185907    13.349284512     4.208893489
 H      -13.530296125    16.263594657     0.655767702
 H      -11.314333416    17.329781557     0.623525143
 H      -10.555106329    15.885260829     4.609332864
 H      -12.725905583    14.764576595     4.629022577
 H       -9.296372097    17.864221155     1.593802258
 H       -8.770363074    16.819129796     4.490563297
 H       -9.067040112    20.140507463     2.764958112
 H       -9.097719996    22.101663845     1.331732300
 H       -4.949647480    21.505084545     0.350449650
 H       -4.873787029    19.529054138     1.766649606
 H       -6.049408739    23.325861570    -0.611022001
 H       -9.030211112    23.720222603     0.126698439
 H       -5.987004141    24.949102593    -1.822054400
 H       -6.024423490    26.913115267    -3.249527476
 H      -10.220719287    27.503970282    -2.258629778
 H      -10.133297921    25.538036001    -0.830013021
 H      -12.874369522    11.159949698     1.650104337
 H      -12.565384919    12.814784151     2.253533135
 H      -15.075878583    12.001710711     0.631183826
 H      -14.990672706    12.070428513     2.384938349
 H      -14.381830795    14.459765817     0.509028439
 H      -15.991290657    14.153919647     1.227580151
 H        2.262854454    -1.029262077     0.053111156
 H        2.260840374     0.554038283     0.870725776
 H        2.275371845     0.468134410    -0.911874907
 H       -6.748616357    29.860341211    -5.724668347
 H       -6.582394297    28.087100177    -5.682024324
 H       -5.753623129    29.092577668    -4.462026387
 H      -10.626822507    28.763464263    -4.278983407
 C       -9.958433790    29.997952830    -5.932903289
 C       -9.838893466    27.495606547    -5.853054798
 H       -8.245066836    31.303390521    -3.581386441
 C       -9.566599045    30.536505876    -2.038004176
 C       -7.068187824    30.555430904    -1.914846442
 H       -6.401066511    17.729943589     5.824490105
 C       -5.024826778    19.316467428     5.271876195
 C       -7.436720070    19.639292513     5.868268013
 H       -4.680264218    17.389585122     2.867687763
 C       -5.673027279    15.601829530     3.599302057
 C       -5.954961814    16.576803312     1.305974285
 H       -4.037312743    14.295344801     1.352444002
 C       -3.792514415    12.522190443     2.593325558
 C       -1.965297649    13.654023464     1.312008313
 H       -2.360385492    13.553963410    -1.643031033
 C       -3.675588442    12.610479318    -3.088621173
 C       -4.146453600    14.767501607    -1.902262831
 H       -0.126476595    -1.936144603    -1.514957243
 C       -2.141506446    -1.127258106    -1.572923481
 C       -0.191364771    -0.227290831    -2.855445741
 H       -1.778035410    -0.913989530     1.442819001
 C       -0.182270017    -2.369986896     1.637550367
 C       -0.298567660    -0.178673711     2.849032280
 H       -9.987260104    30.953309497    -5.393124545
 H      -10.917319702    29.917150720    -6.465338786
 H       -9.183699548    30.074424605    -6.707280864
 H       -9.762518312    26.577835470    -5.252390738
 H       -9.064477105    27.447456914    -6.630005853
 H      -10.804740359    27.440828001    -6.375193590
 H      -10.477181601    30.538997311    -2.650252343
 H       -9.575079753    31.480208045    -1.473149881
 H       -9.662292521    29.734150254    -1.292861984
 H       -6.101993771    30.575323270    -2.435147845
 H       -7.027977282    29.748325260    -1.169134165
 H       -7.130764417    31.495164384    -1.347532527
 H       -4.229271186    18.651639919     4.912325755
 H       -4.767054698    19.568872967     6.310747181
 H       -4.958848972    20.255806554     4.704197381
 H       -8.455144113    19.230682613     5.919625165
 H       -7.494629311    20.610902774     5.356525909
 H       -7.138677835    19.855766347     6.903966669
 H       -5.430910924    15.751896565     4.658817373
 H       -4.899102421    14.926124167     3.204573815
 H       -6.621537169    15.048567821     3.548873300
 H       -5.965558850    17.460405416     0.652442971
 H       -6.904845314    16.044668199     1.148199651
 H       -5.161977614    15.922697435     0.916862441
 H       -4.863785869    12.308849625     2.714671685
 H       -3.482607321    13.085883523     3.484520223
 H       -3.260215977    11.560831667     2.642541406
 H       -1.664922875    14.300005790     0.477348074
 H       -1.328100302    12.758847951     1.291825308
 H       -1.698263581    14.197648549     2.230069159
 H       -3.189681799    11.624625355    -3.090308530
 H       -3.242505500    13.166749056    -3.932067482
 H       -4.735809113    12.457573590    -3.332915608
 H       -3.948792711    15.428673829    -1.048414566
 H       -5.238356230    14.694991733    -2.023801931
 H       -3.772607113    15.294724355    -2.791349001
 H       -2.518085482    -1.698061996    -0.714759264
 H       -2.428236867    -1.696946497    -2.468899478
 H       -2.699866114    -0.181618665    -1.620909416
 H        0.895559354    -0.112357604    -2.955395878
 H       -0.644127883     0.767226096    -2.978042811
 H       -0.517796119    -0.822182885    -3.720498256
 H       -0.460462881    -2.975434496     0.765302679
 H       -0.645004754    -2.856148761     2.508757789
 H        0.903133015    -2.461844381     1.776135778
 H       -0.654650938     0.861199750     2.876437399
 H        0.780212086    -0.163945749     3.053472845
 H       -0.768372933    -0.686596789     3.703292373

