187   

Si        0.000000000     0.000000000     0.000000000
 C        1.865098557     0.000000000     0.000000000
 C       -0.678110451     1.711688914     0.000000000
 C        0.117050650     2.800834724    -0.370601614
 C       -0.405177319     4.094172406    -0.367624624
 C       -1.733215750     4.327486919    -0.000915414
 C       -2.530145069     3.234532885     0.365246728
 C       -2.011499587     1.942661502     0.364324598
 C       -2.322293394     5.662390137     0.017015743
 C       -1.670130444     6.791252194    -0.309208203
 C       -2.259784608     8.125966402    -0.291083733
 C       -3.588797680     8.357273230     0.076150694
 C       -4.112332268     9.649326939     0.079666365
 C       -3.312091865    10.739902165    -0.277140467
 C       -1.980498758    10.512631828    -0.646047907
 C       -1.463874396     9.219370621    -0.656498053
Si       -3.993902002    12.448055483    -0.275483490
 C       -2.615727615    13.647365359    -0.218523592
 C       -2.458159662    14.698743267    -1.032432189
 C       -1.335189115    15.635026072    -0.949277848
 C       -1.276749132    16.702488978    -1.859126291
 C       -0.236558402    17.614789658    -1.822515219
 C        0.806214603    17.464331971    -0.883444220
 C        0.747945631    16.401961925     0.031845762
 C       -0.324381716    15.516355157     0.006404333
 N        1.843757971    18.424490081    -0.889442066
 C        2.509460757    18.629919745    -2.197718156
 C        2.783996932    18.383410449     0.242363079
 C        2.638669989    17.385153390    -3.090900008
 C        3.481552485    16.267072579    -2.450747370
 N        3.218603918    14.935711922    -3.029466507
 C        3.446251520    14.787907725    -4.410615436
 C        4.496689136    15.498723163    -5.030360537
 C        4.731090621    15.361944193    -6.388830860
 C        3.970614351    14.481672788    -7.171734765
 C        2.952050693    13.754557224    -6.550227598
 C        2.691763520    13.892983001    -5.193109431
 C        2.000014801    14.308607618    -2.488705985
 C        4.260483479    14.376082800    -8.602526533
 C        3.600186652    13.570212228    -9.445211252
Si        3.954938426    13.431667389   -11.232798724
 C        5.724012712    13.753513173   -11.621151080
 C        6.716127602    13.423341988   -10.688571564
 C        8.058267018    13.662311445   -10.971477745
 C        8.444194150    14.222848004   -12.196279892
 C        7.453097590    14.542160083   -13.128450959
 C        6.107661773    14.308208552   -12.846565263
 C        9.862999478    14.454512831   -12.446627087
 C       10.363781841    14.987830270   -13.573953446
 C       11.782343111    15.219774111   -13.824991248
 C       12.774838482    14.901329132   -12.894536579
 C       14.119842933    15.140279979   -13.176352442
 C       14.501915435    15.698646102   -14.400141535
 C       13.508357024    16.018252713   -15.335529188
 C       12.166446753    15.783289345   -15.049417245
Si       16.272681976    16.020265492   -14.787555640
 C       17.406830480    15.168958327   -13.575668691
 C       16.617531433    15.405072575   -16.555537385
 C       16.604417324    17.893689514   -14.722559126
 C        3.521311206    11.665623808   -11.791917481
 C        2.845524997    14.658688271   -12.173443452
 C       -5.056938276    12.697504999    -1.832110702
 C       -5.086188761    12.697300016     1.261290416
 C       -0.619464395    -0.916689841    -1.548588725
 C       -0.653070470    -0.909889214     1.539477962
 H        1.162970076     2.681144424    -0.666588514
 H        0.235223982     4.925246666    -0.657635904
 H       -3.567463037     3.394106839     0.653470051
 H       -2.681005461     1.129500743     0.658340751
 H       -3.371684441     5.694825973     0.324500879
 H       -0.620873916     6.758996240    -0.617113526
 H       -4.228714008     7.524770157     0.362556490
 H       -5.158793307     9.768536168     0.373654763
 H       -1.311481299    11.328857752    -0.938000587
 H       -0.427869727     9.059892863    -0.949866604
 H       -1.891701262    13.436717388     0.586549914
 H       -3.164901302    14.940869561    -1.836698182
 H       -2.067143164    16.822916388    -2.600942986
 H       -0.220738771    18.456200922    -2.511542794
 H        1.530416558    16.260878877     0.770711374
 H       -0.359147041    14.708497635     0.739354876
 H        3.392746282    19.305109081     0.232636437
 H        3.462537146    17.516317013     0.241723909
 H        2.217036103    18.390620868     1.190815270
 H        1.916912097    14.511753383    -1.406180527
 H        2.073427839    13.212532357    -2.605668890
 H        1.070297041    14.662955188    -2.964438396
 H        5.126510898    16.163019126    -4.446213587
 H        5.533891226    15.937831997    -6.851200633
 H        2.345842731    13.061159689    -7.134953180
 H        1.890184481    13.308775373    -4.751915783
 H        5.087120342    15.024764815    -8.925137265
 H        2.769197077    12.938434844    -9.096128251
 H        6.473863322    12.977420810    -9.717707171
 H        8.814650852    13.405905907   -10.231953484
 H        7.725632443    14.977308136   -14.088000937
 H        5.378734727    14.577714041   -13.615596999
 H       10.526357792    14.156344671   -11.629393477
 H        9.700316133    15.285242127   -14.391300618
 H       12.504267127    14.461968618   -11.936120269
 H       14.850609473    14.869843138   -12.409146678
 H       13.747665151    16.455625749   -16.308950087
 H       11.409171635    16.038481528   -15.788241488
 H        1.907414500    19.402021551    -2.736504142
 H        3.511602256    19.081322878    -2.032726170
 H        1.632671420    16.991729420    -3.342955060
 H        3.077897576    17.675937114    -4.065528766
 H        4.567530785    16.487589095    -2.550264479
 H        3.284896329    16.206220352    -1.356460637
 H        2.262758558    -1.029333678     0.052596793
 H        2.260443616     0.553612428     0.871165585
 H        2.275717253     0.468598313    -0.911439522
 H       18.466704427    15.330495036   -13.841906745
 H       17.229739044    14.078085442   -13.566665547
 H       17.261591596    15.542941117   -12.547097020
 H       15.936218961    16.002235391   -17.229080791
 C       18.065628856    15.645727611   -17.017916944
 C       16.273201360    13.915948292   -16.738950410
 H       17.712396458    18.012942747   -14.899458446
 C       15.859705195    18.691575821   -15.807569111
 C       16.272490052    18.503046771   -13.347880053
 H        2.430003130    11.519212015   -11.546513703
 C        3.705173912    11.447403088   -13.303789800
 C        4.329584126    10.599633665   -11.030476798
 H        3.044082005    14.484799842   -13.270172449
 C        1.343889425    14.432225608   -11.922187704
 C        3.190306095    16.123499499   -11.849850740
 H       -5.353509569    13.786438025    -1.834433857
 C       -4.274786654    12.409480133    -3.126921654
 C       -6.344372451    11.854445178    -1.835375837
 H       -5.930891157    11.954926676     1.165353030
 C       -4.337737394    12.397420887     2.572234862
 C       -5.697980647    14.106772338     1.342542248
 H       -0.132741286    -1.934138814    -1.517755832
 C       -2.145262783    -1.118311921    -1.572165328
 C       -0.193146414    -0.223239558    -2.855526126
 H       -1.777515655    -0.920130003     1.440049238
 C       -0.176946901    -2.370338822     1.636698525
 C       -0.302732206    -0.180004651     2.848795274
 H       18.364670470    16.701192714   -16.980530787
 H       18.182064369    15.330537566   -18.065118651
 H       18.800680462    15.069049673   -16.440934685
 H       15.231701039    13.676520260   -16.480273710
 H       16.920535305    13.249913903   -16.153213533
 H       16.402290038    13.625813215   -17.791410701
 H       16.101241044    18.370519413   -16.828681374
 H       16.136248627    19.754419891   -15.747613760
 H       14.767447962    18.653299833   -15.690690614
 H       16.826041741    18.041284566   -12.520213705
 H       15.201767835    18.447618306   -13.103799089
 H       16.535803575    19.570435041   -13.335520015
 H        3.082427863    12.109349820   -13.918740002
 H        3.419223524    10.420244211   -13.572944191
 H        4.747900720    11.569399756   -13.630509330
 H        4.207138448    10.655237548    -9.940029348
 H        5.406832295    10.646061431   -11.245953254
 H        4.000575039     9.593639902   -11.326817906
 H        1.001675998    13.427634026   -12.201284308
 H        0.752112291    15.135852900   -12.525158491
 H        1.055023783    14.606845930   -10.876175312
 H        4.237333088    16.382575825   -12.060092123
 H        2.989777445    16.387322096   -10.801210360
 H        2.576835603    16.800100389   -12.460942823
 H       -3.354160741    13.000507920    -3.226952421
 H       -4.893542160    12.650142737    -4.002839211
 H       -3.996797418    11.350361917    -3.228862519
 H       -7.009720860    12.070764977    -0.989871464
 H       -6.148237819    10.772926340    -1.842047527
 H       -6.927448558    12.063507830    -2.744257594
 H       -3.905472294    11.387320263     2.606025113
 H       -5.029693755    12.462832074     3.424096702
 H       -3.528994474    13.112105145     2.777191920
 H       -6.320139274    14.362477544     0.475184599
 H       -4.941085612    14.896551256     1.453306693
 H       -6.352203410    14.182919283     2.222926863
 H       -2.522557782    -1.690836133    -0.715442707
 H       -2.435284942    -1.684003904    -2.469619372
 H       -2.700650724    -0.170726151    -1.615930934
 H        0.894060584    -0.111386448    -2.956092121
 H       -0.643203039     0.772634578    -2.976823646
 H       -0.521821344    -0.816292043    -3.721048035
 H       -0.452269410    -2.976590493     0.764083176
 H       -0.638991837    -2.858147848     2.507369033
 H        0.908592521    -2.458669525     1.776439417
 H       -0.661797463     0.858789650     2.876086842
 H        0.775697678    -0.162119319     3.055044296
 H       -0.772328196    -0.689726827     3.702102485

