187   

Si        0.000000000     0.000000000     0.000000000
 C        1.865116754     0.000000000     0.000000000
 C       -0.681611631     1.709916562     0.000000000
 C        0.084571211     2.788326853     0.454338346
 C       -0.438528885     4.081268907     0.451411895
 C       -1.738242798     4.325263442    -0.000140319
 C       -2.506551754     3.242861500    -0.449114140
 C       -1.987840953     1.950994547    -0.446175162
 C       -2.327805308     5.659781667    -0.021802286
 C       -1.703336057     6.779721580     0.380315111
 C       -2.294316610     8.113772914     0.358050762
 C       -3.595153777     8.353849288    -0.094509670
 C       -4.120720213     9.644887365    -0.098647243
 C       -3.353676210    10.725567506     0.350934596
 C       -2.051514554    10.488563732     0.807281419
 C       -1.530819722     9.196735429     0.812433161
Si       -4.048588727    12.429268729     0.344965610
 C       -2.707144048    13.647165724     0.582239301
 C       -2.703715333    14.648151740     1.472288025
 C       -1.605034220    15.602879084     1.628504061
 C       -1.715326116    16.611544688     2.597310962
 C       -0.704208862    17.538897046     2.784499054
 C        0.447333911    17.514374961     1.967697822
 C        0.559333848    16.503212029     0.995742149
 C       -0.445524485    15.554947794     0.850592690
 N        1.460206562    18.467440917     2.178184122
 C        1.024963515    19.840271737     2.489759738
 C        2.623293297    18.418593044     1.278836645
 C        0.088656981    20.454613292     1.428139891
 C        0.175524702    21.992389151     1.410123353
 N        1.034212045    22.548894651     0.336680352
 C        2.350240398    22.004448457     0.341365567
 C        3.167006283    22.302826027     1.449762340
 C        4.457679946    21.804122518     1.515607650
 C        4.984083652    21.025416685     0.473147622
 C        4.177500590    20.754979386    -0.634374808
 C        2.877338721    21.243698654    -0.710832628
 C        0.357242462    22.553137026    -0.972914712
 C        6.354630979    20.521348427     0.590459764
 C        6.952609610    19.771344194    -0.343598286
Si        8.654600997    19.108179077    -0.267052279
 C        8.600705345    17.309596301    -0.650494334
 C        7.392396837    16.608209957    -0.553061550
 C        7.343176990    15.246889448    -0.841530267
 C        8.498514503    14.552346589    -1.222789288
 C        9.704031274    15.254698607    -1.312140202
 C        9.756794969    16.618738850    -1.027850832
 C        8.393660921    13.126541348    -1.514352730
 C        9.417948696    12.343444081    -1.892928499
 C        9.308462574    10.917583795    -2.183568665
 C        8.100978443    10.220429589    -2.092680445
 C        8.041136370     8.856788294    -2.379697127
 C        9.189611954     8.160723961    -2.769427722
 C       10.402184650     8.857707544    -2.860847892
 C       10.459770984    10.217565655    -2.568628771
Si        9.126440617     6.360842939    -3.151525795
 C        7.372754305     5.769533400    -3.382793730
 C       10.138522532     6.048462748    -4.733334092
 C        9.921050192     5.384615666    -1.723764771
 C        9.724773353    20.007045132    -1.555680899
 C        9.414993381    19.363951131     1.456032023
 C       -4.877729214    12.753954238    -1.336818397
 C       -5.358016775    12.583273727     1.715636623
 C       -0.646594520    -0.917410213    -1.538315951
 C       -0.625210758    -0.914391669     1.547746770
 H        1.107928279     2.659880878     0.817612154
 H        0.179219925     4.903857341     0.807261600
 H       -3.521766560     3.410609773    -0.803666569
 H       -2.635640776     1.146637455    -0.805554503
 H       -3.353292721     5.700241125    -0.400508768
 H       -0.677968265     6.739828404     0.759604080
 H       -4.210201062     7.529469486    -0.449907504
 H       -5.142866413     9.771347655    -0.465938903
 H       -1.409772123    11.295961085     1.175176669
 H       -0.517533050     9.030476680     1.173369949
 H       -1.859256299    13.499352993    -0.107412651
 H       -3.534865605    14.829430684     2.166308492
 H       -2.606251553    16.661723572     3.223744604
 H       -0.800544139    18.287391169     3.565693990
 H        1.429125563    16.448455681     0.348659858
 H       -0.327083895    14.772108565     0.099662801
 H        3.378066040    19.158636628     1.605977802
 H        2.379636003    18.632926782     0.225662288
 H        3.100688872    17.424841011     1.349173191
 H       -0.546706441    23.183226577    -0.897359544
 H        0.056971051    21.557821830    -1.335227185
 H        1.014153858    23.024434971    -1.724758805
 H        2.779145413    22.934434502     2.246524383
 H        5.076007743    22.033383241     2.383862225
 H        4.566318513    20.157485741    -1.460686338
 H        2.275066054    21.013084540    -1.584926650
 H        6.847854828    20.816365772     1.525246420
 H        6.429238831    19.504055353    -1.278007460
 H        6.459324016    17.096323333    -0.252693232
 H        6.394664748    14.718081973    -0.765265299
 H       10.615965839    14.738060030    -1.605456140
 H       10.726992352    17.115317826    -1.115678004
 H        7.387827514    12.710500813    -1.402623846
 H       10.424101920    12.757790695    -2.004753710
 H        7.191410412    10.739280635    -1.795241071
 H        7.067769918     8.366068734    -2.291246037
 H       11.332098736     8.366051169    -3.160217683
 H       11.411054494    10.740968253    -2.643365963
 H        0.525638006    19.830707876     3.484812568
 H        1.936452446    20.469686257     2.617165487
 H        0.336373635    20.046730690     0.429084422
 H       -0.950972944    20.128712300     1.616029126
 H       -0.840221957    22.432225772     1.297393886
 H        0.562339945    22.377907010     2.380094285
 H        2.262686689    -1.029259437    -0.052537521
 H        2.276735363     0.469371728     0.910494705
 H        2.259413748     0.553702246    -0.871575561
 H        7.346230618     4.698416331    -3.651993180
 H        6.870380633     6.327601527    -4.193951876
 H        6.772268978     5.896193068    -2.464951372
 H       11.190099125     6.385861611    -4.499519084
 C       10.199803336     4.565620490    -5.140725573
 C        9.633334891     6.876505510    -5.928716173
 H        9.816736324     4.296383600    -2.003068074
 C       11.418081122     5.685732222    -1.530542158
 C        9.196589177     5.604697661    -0.383070723
 H       10.763412072    19.578340791    -1.448867771
 C        9.252269279    19.750819317    -2.997762832
 C        9.808076203    21.524559558    -1.315610474
 H        9.314309780    20.465660250     1.679288688
 C        8.664349053    18.580939515     2.548890984
 C       10.908688566    18.999960649     1.525709718
 H       -5.707126495    11.994044226    -1.425282354
 C       -5.502370538    14.156350645    -1.439954897
 C       -3.914713118    12.544045244    -2.518923254
 H       -5.658519000    13.671029230     1.733457947
 C       -6.624088519    11.747000578     1.457523406
 C       -4.798669988    12.215496523     3.102320636
 H       -1.771393483    -0.928378100    -1.443779832
 C       -0.290793650    -0.192977107    -2.849333169
 C       -0.168954634    -2.377795465    -1.627953719
 H       -0.151638555    -1.937687938     1.512841982
 C       -0.187673522    -0.230075621     2.855818174
 C       -2.153641187    -1.095506024     1.572011672
 H       10.620222187     3.917279666    -4.361173159
 H       10.846738721     4.445281033    -6.021939582
 H        9.219870414     4.157962675    -5.422387143
 H        9.612363920     7.957637607    -5.729924451
 H        8.628907867     6.582133510    -6.260855676
 H       10.298238715     6.736252374    -6.792836824
 H       12.023787520     5.476225335    -2.421196700
 H       11.826859474     5.055455815    -0.727252183
 H       11.608321053     6.725697784    -1.229512569
 H        8.133732792     5.332246911    -0.411483540
 H        9.264932549     6.642367956    -0.025869417
 H        9.652654972     4.980075676     0.398423396
 H        9.209466206    18.683930620    -3.259094883
 H        9.950822750    20.212418502    -3.710412909
 H        8.265590617    20.184787184    -3.209526906
 H       10.219093536    21.788664565    -0.332664203
 H        8.835915255    22.028127212    -1.415953583
 H       10.471532051    21.987526394    -2.060311350
 H        7.590436619    18.807664757     2.595880725
 H        9.075764166    18.825465950     3.538354223
 H        8.764082153    17.491440312     2.435775737
 H       11.533416779    19.587861609     0.841279752
 H       11.100189954    17.935863548     1.327577655
 H       11.295576715    19.195376800     2.536689841
 H       -6.267540478    14.349330453    -0.677125617
 H       -6.000516618    14.276104939    -2.412534093
 H       -4.757107140    14.962116877    -1.374847925
 H       -3.460326428    11.543287214    -2.537427552
 H       -3.099483693    13.280051333    -2.543100732
 H       -4.456046324    12.651935575    -3.469497434
 H       -7.135316585    12.006049454     0.521848173
 H       -7.354880177    11.915384768     2.261985332
 H       -6.427537452    10.665768607     1.446976193
 H       -3.911670303    12.797733610     3.387954609
 H       -4.531400883    11.151944778     3.184717026
 H       -5.554996902    12.403753666     3.876998595
 H       -0.648196263     0.846232817    -2.882113552
 H       -0.757572352    -0.705460367    -3.702455975
 H        0.788431354    -0.177255497    -3.051491456
 H       -0.449945782    -2.981680672    -0.755496956
 H        0.917533971    -2.465911702    -1.760045503
 H       -0.624762502    -2.868375737    -2.500330734
 H        0.901156716    -0.135229848     2.955757235
 H       -0.524880234    -0.819974646     3.720252928
 H       -0.622763548     0.772173009     2.979568729
 H       -2.538706574    -1.663852963     0.715983299
 H       -2.696278273    -0.140289959     1.613704007
 H       -2.451369654    -1.655876256     2.470236702

