187   

Si        0.000000000     0.000000000     0.000000000
 C        1.865086669     0.000000000     0.000000000
 C       -0.674589889     1.713014614     0.000000000
 C        0.106945250     2.791113926     0.428428436
 C       -0.409094530     4.086721962     0.426359012
 C       -1.718435165     4.333712383     0.005267083
 C       -2.502357139     3.251851592    -0.417173389
 C       -1.989355090     1.957535491    -0.418056275
 C       -2.300131515     5.671771368    -0.013805672
 C       -1.658183517     6.790908916     0.362281148
 C       -2.239969044     8.128909517     0.343169427
 C       -3.549397474     8.375598525    -0.077994229
 C       -4.065390487     9.671219342    -0.080045658
 C       -3.285927774    10.747515950     0.355292672
 C       -1.973222612    10.502863080     0.780755623
 C       -1.456882251     9.210126949     0.769150703
Si       -3.938164042    12.467745886     0.364456757
 C       -3.264989744    13.443501289     1.755860377
 C       -2.902939335    12.920387861     2.935308955
 C       -2.363854142    13.699557701     4.050475498
 C       -2.020759736    13.036022435     5.237210189
 C       -1.506600222    13.726320492     6.322555852
 C       -1.266328710    15.115106132     6.238707251
 C       -1.609099825    15.781582428     5.046142544
 C       -2.168693964    15.081736305     3.985280238
 N       -0.744448325    15.808589530     7.344331451
 C        0.153809081    15.067277665     8.246776884
 C       -0.306588456    17.196499411     7.114668546
 C        1.449223172    14.598459643     7.560630533
 C        2.538790812    14.177593741     8.560572352
 N        2.980260869    15.221939357     9.514106328
 C        3.008161402    16.537899616     8.996112350
 C        3.757883828    16.768867688     7.823473005
 C        3.818695330    18.038328458     7.274553318
 C        3.165233547    19.121699301     7.882784908
 C        2.444695145    18.892524169     9.056555676
 C        2.370270579    17.622336086     9.618271116
 C        2.410574991    15.058547007    10.861498442
 C        3.261658974    20.444115826     7.260476779
 C        2.680049876    21.545351990     7.752611150
Si        2.762709255    23.220147622     7.024712426
 C        3.245246815    24.435513082     8.316984715
 C        3.921411646    24.012047258     9.465973417
 C        4.289218543    24.930525375    10.448524684
 C        3.999967859    26.289767266    10.300246475
 C        3.328292780    26.711547252     9.144915438
 C        2.955675613    25.796990094     8.163351342
 C        4.365865067    27.285501925    11.302302052
 C        5.009738800    27.013936220    12.450185047
 C        5.376395950    28.008267247    13.453266046
 C        5.085269492    29.367222500    13.310181612
 C        5.454803455    30.283404347    14.294994483
 C        6.130796269    29.859456994    15.443332221
 C        6.424719515    28.496765146    15.588801454
 C        6.049642885    27.584179984    14.606984012
Si        6.625448638    31.055847868    16.752256975
 C        6.478912966    32.818980627    16.161554089
 C        5.506980910    30.825493560    18.275167221
 C        8.421469192    30.678208112    17.257436862
 C        4.018732369    23.294678891     5.599239219
 C        1.039743537    23.656422492     6.344209049
 C       -3.436380580    13.317626162    -1.262181113
 C       -5.836896024    12.453860932     0.485018454
 C       -0.649803285    -0.912397762    -1.539612641
 C       -0.626876195    -0.913878583     1.547059430
 H        1.137680126     2.660089305     0.769330234
 H        0.221942049     4.908774428     0.759247666
 H       -3.524965725     3.422159518    -0.748533365
 H       -2.648866892     1.154145500    -0.757837452
 H       -3.334454127     5.715863129    -0.367123609
 H       -0.623624413     6.747092762     0.715322706
 H       -4.179094627     7.553648655    -0.413003292
 H       -5.093702725     9.802012034    -0.427768569
 H       -1.318139964    11.307944980     1.131165638
 H       -0.433880548     9.040094437     1.099344849
 H       -3.190114780    14.524425008     1.564251441
 H       -2.976719304    11.845593362     3.155386300
 H       -2.172183334    11.958470105     5.314745676
 H       -1.287529810    13.186620273     7.238858653
 H       -1.450246244    16.850166199     4.942442488
 H       -2.441564659    15.626038057     3.080022562
 H        0.150273375    17.612053439     8.030859641
 H       -1.189300979    17.818871021     6.881941008
 H        0.431209502    17.296596373     6.301505549
 H        2.655613947    14.046041534    11.229390275
 H        1.319785053    15.195744090    10.917996350
 H        2.895386900    15.770482092    11.553753092
 H        4.291707321    15.944023815     7.357036860
 H        4.392900549    18.198308213     6.361282972
 H        1.931732551    19.718800847     9.551846419
 H        1.800119983    17.482903156    10.531531120
 H        3.865992524    20.448492252     6.344202854
 H        2.073218289    21.505059965     8.673157011
 H        4.179359840    22.961120316     9.633638797
 H        4.809758307    24.576390300    11.336592436
 H        3.093986985    27.765742460     9.010345888
 H        2.433243965    26.183654362     7.284132199
 H        4.074155246    28.310760851    11.056797216
 H        5.301895618    25.988411310    12.695285185
 H        4.563700214    29.723568836    12.423793943
 H        5.198595057    31.333148481    14.127291022
 H        6.951612547    28.107779958    16.464778703
 H        6.285320497    26.529758227    14.738703998
 H        0.386088676    15.731842464     9.110598349
 H       -0.400214828    14.201600944     8.673068549
 H        1.228290936    13.754362365     6.878092752
 H        1.831797190    15.404907441     6.902179018
 H        2.205493800    13.281580823     9.127766318
 H        3.449367988    13.863187638     7.994457842
 H        2.263328127    -1.028778647    -0.057667832
 H        2.276600668     0.464761055     0.912908990
 H        2.259473057     0.557953534    -0.868922655
 H        6.823289858    33.528233692    16.935397479
 H        5.436198039    33.081499787    15.910857889
 H        7.095433152    32.987460457    15.259857903
 H        5.823636109    31.621979231    19.009021169
 C        4.017327145    31.040381025    17.950309441
 C        5.669220231    29.456046020    18.958860832
 H        8.416294345    29.619256727    17.648741464
 C        9.393038068    30.734274154    16.064674091
 C        8.949378433    31.591731855    18.377948899
 H        3.728728691    22.469478657     4.886396322
 C        3.983655301    24.624975380     4.825881064
 C        5.460661727    23.037094855     6.073494839
 H        1.139552073    24.677432473     5.874585037
 C        0.556919831    22.677574998     5.259492590
 C       -0.026081326    23.744765979     7.450992973
 H       -3.865023884    14.360000021    -1.214262977
 C       -1.908901299    13.435154872    -1.411632436
 C       -4.008863231    12.621606742    -2.509151416
 H       -6.203328253    11.878905145    -0.413772573
 C       -6.336103851    11.734523028     1.750912662
 C       -6.458207591    13.861119314     0.433522626
 H       -1.774700026    -0.917422682    -1.445323241
 C       -0.289862427    -0.188326859    -2.849554512
 C       -0.179823245    -2.375236252    -1.630167390
 H       -0.153992852    -1.937655021     1.511861931
 C       -0.189900308    -0.230831042     2.855884709
 C       -2.155420501    -1.094536497     1.570955547
 H        3.800090854    32.031464994    17.531723719
 H        3.415764114    30.955774935    18.866715531
 H        3.620103548    30.289966964    17.251686667
 H        6.694073710    29.255147163    19.295652405
 H        5.353535176    28.620040613    18.318961428
 H        5.036918570    29.408293961    19.857496940
 H        9.109573933    30.062004402    15.242159727
 H       10.398464029    30.423183787    16.382376456
 H        9.500013349    31.743202368    15.644773634
 H        8.342780242    31.553763294    19.291994241
 H        9.027681038    32.643331462    18.071760997
 H        9.963233388    31.280569530    18.669127730
 H        3.009162918    24.838583641     4.368838412
 H        4.709200818    24.597917973     3.999682785
 H        4.261431792    25.488560976     5.446811855
 H        5.586605120    22.082843854     6.602901900
 H        5.839327108    23.830587732     6.734317640
 H        6.141485020    23.004398765     5.211267050
 H        1.225147268    22.627476048     4.390143885
 H       -0.422820356    22.995591278     4.875118668
 H        0.422345612    21.653319162     5.635891047
 H        0.231818882    24.456133782     8.248466242
 H       -0.233085975    22.775318062     7.924500648
 H       -0.979996375    24.091486349     7.028633191
 H       -1.429315153    13.972450734    -0.581998222
 H       -1.661206973    13.993693417    -2.325313262
 H       -1.413021775    12.458222296    -1.505384760
 H       -5.105600435    12.583935739    -2.522045738
 H       -3.637248371    11.594452282    -2.634751101
 H       -3.710043039    13.167452138    -3.415729802
 H       -5.981202418    10.697988137     1.834200634
 H       -7.433955620    11.685152818     1.749569434
 H       -6.051797433    12.255218490     2.677246656
 H       -6.213092184    14.412645377    -0.482936028
 H       -6.169507762    14.486818083     1.289898721
 H       -7.554968117    13.788620472     0.463204323
 H       -0.641254908     0.852998509    -2.880968674
 H       -0.759860947    -0.696916231    -3.703280907
 H        0.789423146    -0.178687873    -3.051866860
 H       -0.465925340    -2.978606841    -0.759000070
 H        0.906464135    -2.469108843    -1.760114879
 H       -0.636362918    -2.862377002    -2.504071245
 H        0.898886911    -0.135861739     2.956274321
 H       -0.527319627    -0.821497347     3.719676419
 H       -0.625020078     0.771296680     2.980272956
 H       -2.540164796    -1.662442186     0.714431067
 H       -2.697787712    -0.139247382     1.613144224
 H       -2.453451771    -1.655383497     2.468749908

