187   

Si        0.000000000     0.000000000     0.000000000
 C        1.865080078     0.000000000     0.000000000
 C       -0.674216873     1.713358979     0.000000000
 C        0.102693510     2.786982221    -0.447658161
 C       -0.410943101     4.083531540    -0.446375413
 C       -1.712440791     4.336087088    -0.004601617
 C       -2.491525682     3.258625008     0.437580859
 C       -1.981626485     1.963056494     0.437605000
 C       -2.291281018     5.675441789     0.014453576
 C       -1.653163573     6.790018053    -0.381213552
 C       -2.230935982     8.129837102    -0.362617919
 C       -3.533021485     8.382745127     0.079320929
 C       -4.045339431     9.679168627     0.080137269
 C       -3.261563830    10.752594268    -0.357485775
 C       -1.957696545    10.503147953    -0.802206932
 C       -1.451657715     9.205547102    -0.807655429
Si       -3.935263469    12.463352659    -0.357262771
 C       -2.569274941    13.673729189    -0.461536179
 C       -2.494645090    14.696494097    -1.322693642
 C       -1.380367681    15.645454701    -1.373432188
 C       -1.416297552    16.678705443    -2.323130714
 C       -0.388930883    17.601783794    -2.412955200
 C        0.702276536    17.539424573    -1.519579931
 C        0.743556484    16.504329131    -0.571862704
 C       -0.277536883    15.561188630    -0.521563138
 N        1.725101251    18.503805728    -1.652040157
 C        1.277831797    19.915067533    -1.683585767
 C        2.941549035    18.291775351    -0.851666618
 C        0.077966659    20.260479735    -0.786686352
 C        0.353203516    20.020675905     0.708806760
 N       -0.875907554    19.846531233     1.505635033
 C       -1.797564653    20.910272918     1.491412362
 C       -1.333653967    22.241125557     1.409984003
 C       -2.230105311    23.297180432     1.395134274
 C       -3.610327496    23.079570342     1.513427529
 C       -4.065490247    21.763412664     1.627266976
 C       -3.182170304    20.691739751     1.624378711
 C       -1.432997158    18.486402305     1.401878954
 C       -4.512759989    24.231421309     1.491683380
 C       -5.845836610    24.145293983     1.596437848
Si       -6.975620724    25.581760806     1.569642304
 C       -6.187159374    27.097124015     2.252241726
 C       -5.235380579    26.989066384     3.274855463
 C       -4.631283710    28.128173329     3.800091449
 C       -4.971379037    29.402785822     3.327907869
 C       -5.927587893    29.507977892     2.314145378
 C       -6.531325100    28.368798202     1.782836607
 C       -4.310910977    30.566755178     3.909657438
 C       -4.542437657    31.839171415     3.544735059
 C       -3.882879421    33.004060645     4.125441504
 C       -2.926581225    32.902094292     5.138988740
 C       -2.320851430    34.043002185     5.665491616
 C       -2.664265132    35.313292251     5.192553212
 C       -3.623864385    35.418270651     4.176414246
 C       -4.222658894    34.277607377     3.649275454
Si       -1.874658461    36.829188738     5.876275574
 C       -0.924465323    36.462572617     7.439223678
 C       -0.675505061    37.556446148     4.589150893
 C       -3.241583058    38.108157711     6.221344716
 C       -7.538517616    25.884334229    -0.222715147
 C       -8.501386636    25.162008301     2.625888679
 C       -5.140567480    12.662049989    -1.814479061
 C       -4.881333317    12.771964393     1.264868535
 C       -0.626214525    -0.911355531    -1.549218911
 C       -0.650592232    -0.915877191     1.537029852
 H        1.127707024     2.651996309    -0.804064909
 H        0.215491713     4.902102301    -0.796223922
 H       -3.508163335     3.433035485     0.784829828
 H       -2.637016752     1.162895172     0.792564358
 H       -3.319334388     5.724165765     0.385122424
 H       -0.625239555     6.740568159    -0.752418710
 H       -4.159665493     7.564124194     0.428089299
 H       -5.070289812     9.815555910     0.436121178
 H       -1.303157507    11.304798139    -1.159506374
 H       -0.437290925     9.028990202    -1.160631131
 H       -1.774900924    13.497326839     0.283059874
 H       -3.271711186    14.903162105    -2.070267798
 H       -2.260629806    16.751237261    -3.009809768
 H       -0.413370688    18.373685581    -3.178673043
 H        1.569715634    16.423108006     0.127305697
 H       -0.214803549    14.754440195     0.210692064
 H        3.725736141    18.986846014    -1.200668324
 H        3.323982863    17.270359776    -1.030738569
 H        2.805897563    18.434046888     0.231856612
 H       -0.618098944    17.741063454     1.395349235
 H       -2.037617274    18.323344066     0.494051645
 H       -2.052005165    18.279172596     2.292964556
 H       -0.268861643    22.446496123     1.354075215
 H       -1.850936368    24.316131374     1.306205038
 H       -5.134139940    21.565339983     1.721794589
 H       -3.579612531    19.685583602     1.713482353
 H       -3.986324633    25.191011917     1.387243829
 H       -6.348148553    23.170701499     1.691242980
 H       -4.934826561    26.019177006     3.686256548
 H       -3.888687745    28.023790457     4.589048857
 H       -6.210724040    30.485963584     1.929860280
 H       -7.272067304    28.515777008     0.992192687
 H       -3.584599133    30.335785552     4.694479979
 H       -5.269118521    32.069263305     2.760087107
 H       -2.644700618    31.925121953     5.527442110
 H       -1.579359093    33.899657377     6.456357389
 H       -3.932719114    36.384804301     3.768289351
 H       -4.964698388    34.379221368     2.859670298
 H        2.136005314    20.577153535    -1.437000718
 H        1.012821401    20.137134704    -2.746408435
 H       -0.213507636    21.316411331    -0.951060999
 H       -0.809980483    19.672712597    -1.097924078
 H        0.981656825    19.112594045     0.851345336
 H        0.938669406    20.862631923     1.140886726
 H        2.262959759    -1.028597167     0.063881625
 H        2.259729270     0.563182086     0.865405179
 H        2.276481781     0.459021862    -0.915833135
 H       -0.485595758    37.383324078     7.863426366
 H       -0.098132906    35.752942516     7.258848860
 H       -1.584054790    36.024049689     8.209973113
 H       -0.186970359    38.439770960     5.093574276
 C        0.431025118    36.564101830     4.187228348
 C       -1.370902523    38.062300430     3.312656706
 H       -3.735698330    38.308209219     5.226212434
 C       -4.319013450    37.573995727     7.182376886
 C       -2.707857418    39.447336581     6.760189971
 H       -8.276422032    26.736644487    -0.180274599
 C       -6.373755327    26.303170455    -1.137496468
 C       -8.251761422    24.671316308    -0.846416667
 H       -8.955249867    24.237854078     2.164939640
 C       -8.128347366    24.835053042     4.083072294
 C       -9.566130383    26.272529497     2.618930103
 H       -5.437256857    13.750890310    -1.824433763
 C       -4.484523312    12.329560516    -3.167152121
 C       -6.422176712    11.822622869    -1.668357187
 H       -5.733789800    12.032722550     1.273122574
 C       -4.015809867    12.511989604     2.510628518
 C       -5.476693362    14.188159284     1.353253074
 H       -0.151361260    -1.934177190    -1.517038749
 C       -2.154367300    -1.094544155    -1.572074124
 C       -0.191426853    -0.223970078    -2.856437816
 H       -1.775416322    -0.921252826     1.442025256
 C       -0.180401340    -2.378891103     1.624484518
 C       -0.291664869    -0.195044423     2.849071717
 H        1.036325939    36.218452416     5.035087637
 H        1.129704377    37.042406375     3.485884050
 H        0.040376037    35.674275522     3.672820024
 H       -2.120853659    38.840233742     3.503752634
 H       -1.856374499    37.256957546     2.743676553
 H       -0.630311817    38.511080156     2.634570679
 H       -4.786963193    36.641808684     6.834638284
 H       -5.132445731    38.306771077     7.281948198
 H       -3.938787740    37.394514928     8.196746364
 H       -1.984952393    39.928868102     6.089047162
 H       -2.237235205    39.354787984     7.747970152
 H       -3.536738508    40.160045692     6.880922958
 H       -5.846879539    27.202823857    -0.790161644
 H       -6.748119781    26.534751466    -2.144394499
 H       -5.622956020    25.509268845    -1.262254790
 H       -9.146222008    24.359316084    -0.292506449
 H       -7.595873700    23.795077386    -0.946327169
 H       -8.591322572    24.917210990    -1.862876680
 H       -7.412953625    24.006273048     4.174839362
 H       -9.024394426    24.532613265     4.643181131
 H       -7.707533046    25.697522285     4.620017576
 H       -9.954655325    26.497716355     1.617661613
 H       -9.205552299    27.214022765     3.057853434
 H      -10.432969621    25.966579381     3.222434232
 H       -3.578843438    12.915946095    -3.373924422
 H       -5.183820273    12.541080906    -3.988233430
 H       -4.214465098    11.267409452    -3.259139936
 H       -7.006435996    12.070473015    -0.773162034
 H       -6.226834475    10.741009526    -1.655196577
 H       -7.087140748    12.000878902    -2.526180678
 H       -3.587881783    11.499799114     2.539841554
 H       -4.625269811    12.612492441     3.420102486
 H       -3.187679725    13.226322042     2.614063263
 H       -6.177315087    14.417011456     0.539887214
 H       -4.709239567    14.975520643     1.363494702
 H       -6.044993402    14.299617550     2.287783698
 H       -2.536653426    -1.670853345    -0.720073937
 H       -2.452959327    -1.647892253    -2.474373235
 H       -2.698868577    -0.140103138    -1.604936906
 H        0.897043821    -0.125942531    -2.957128898
 H       -0.629316763     0.777268651    -2.978294825
 H       -0.527543843    -0.813301791    -3.721671556
 H       -0.461314429    -2.979105193     0.749477687
 H       -0.641537355    -2.869656487     2.493969669
 H        0.905229611    -2.472613270     1.759926430
 H       -0.645549600     0.845262798     2.884045784
 H        0.787736378    -0.183346652     3.050838381
 H       -0.759816838    -0.707621446     3.701471915

