187   

Si        0.000000000     0.000000000     0.000000000
 C        1.865350642     0.000000000     0.000000000
 C       -0.665105363     1.718488742     0.000000000
 C        0.149135997     2.790491170    -0.381337135
 C       -0.347126889     4.093227530    -0.383798689
 C       -1.660978320     4.359292896     0.011756154
 C       -2.475805629     3.285552210     0.393202936
 C       -1.987966280     1.981062319     0.378830109
 C       -2.215903968     5.709049753     0.022516861
 C       -1.533438344     6.808844256    -0.339336009
 C       -2.066345390     8.166643726    -0.336783554
 C       -1.232370741     9.216311647    -0.741794206
 C       -1.694929305    10.529736340    -0.756615320
 C       -3.013610947    10.825807702    -0.391389818
 C       -3.845400458     9.777601846     0.020358635
 C       -3.370651235     8.467308923     0.065653980
Si       -3.660140848    12.548848012    -0.398780233
 C       -4.991085614    12.825387384    -1.624449197
 C       -5.146885776    12.194790780    -2.796798853
 C       -6.245917476    12.474683708    -3.728913300
 C       -6.332022248    11.766882392    -4.934422366
 C       -7.361625859    12.008484676    -5.839637092
 C       -8.353427362    12.951343376    -5.538758374
 C       -8.274796898    13.663031310    -4.327279571
 C       -7.229343996    13.431537159    -3.446910392
 N       -9.452566053    13.281556112    -6.385705985
 C       -9.295589693    13.029670020    -7.827341281
 C      -10.753237475    12.847684680    -5.843150469
 C       -9.738341162    11.640240882    -8.317479275
 C       -9.260936748    11.392861106    -9.763328500
 N       -8.995257689     9.966982674   -10.077813593
 C       -8.058572008     9.410147061    -9.150873165
 C       -6.728739832     9.856711156    -9.252365049
 C       -5.765800683     9.361583818    -8.388032269
 C       -6.095437110     8.399648398    -7.421447438
 C       -7.414871722     7.949865610    -7.338433861
 C       -8.392291713     8.442494796    -8.196350082
 C      -10.236539521     9.193021111   -10.257641033
 C       -5.043149115     7.907114852    -6.531071912
 C       -5.249761582     6.991599339    -5.576440011
Si       -3.973133157     6.345678815    -4.442256967
 C       -3.896932253     4.519002385    -4.331949937
 C       -4.325336008     3.690802142    -5.372618829
 C       -4.249243151     2.302954313    -5.245938237
 C       -3.741768160     1.719316619    -4.082557270
 C       -3.307172125     2.553137960    -3.043537402
 C       -3.379049187     3.936306486    -3.166663000
 C       -3.639421500     0.276831625    -3.896587916
 C       -4.011856441    -0.650378375    -4.794613881
 C       -3.897964295    -2.089587396    -4.581718188
 C       -3.381897856    -2.633896525    -3.402898505
 C       -3.287391590    -4.014309979    -3.232910826
 C       -3.694089612    -4.883675150    -4.249405832
 C       -4.207415757    -4.341667767    -5.435555637
 C       -4.309862770    -2.962552377    -5.597194018
Si       -3.574736980    -6.707755937    -4.038106195
 C       -2.533007227    -7.155377710    -2.555995634
 C       -5.317294651    -7.436040963    -3.804400999
 C       -2.815091956    -7.440934521    -5.621704911
 C       -2.253812703     7.015387875    -4.899245829
 C       -4.500498374     7.080792501    -2.765050044
 C       -4.331564571    12.997348919     1.325654044
 C       -2.252194496    13.770108845    -0.809956616
 C       -0.671454701    -0.848617609    -1.565676104
 C       -0.587869678    -0.981495098     1.521717890
 H        1.188167812     2.648661537    -0.691745726
 H        0.306262456     4.906322152    -0.695047915
 H       -3.503809793     3.468881940     0.701071988
 H       -2.672841771     1.182146050     0.678046431
 H       -3.257144920     5.778069947     0.350097559
 H       -0.489368271     6.731598470    -0.660266009
 H       -0.208546851     9.008129530    -1.046424457
 H       -0.989638295    11.305359662    -1.067779460
 H       -4.885622014     9.945986948     0.318728527
 H       -4.033974587     7.673556889     0.405726305
 H       -5.693034843    13.619302289    -1.317191707
 H       -4.468865404    11.404176917    -3.144213779
 H       -5.584265548    11.008681161    -5.174158505
 H       -7.397413680    11.443548518    -6.769379915
 H       -9.030291290    14.411176562    -4.096741708
 H       -7.181907591    14.004815028    -2.520933778
 H      -11.562036551    13.236789906    -6.483446283
 H      -10.892310757    13.278655241    -4.836462292
 H      -10.855713559    11.753627524    -5.763853035
 H      -10.769360776     9.591980857   -11.138551546
 H      -10.920816947     9.217917242    -9.396439691
 H       -9.984094090     8.142031858   -10.481944493
 H       -6.463871935    10.585293007   -10.016072341
 H       -4.739555453     9.719768885    -8.467685251
 H       -7.692954256     7.203834344    -6.592749307
 H       -9.411608566     8.078667425    -8.107484778
 H       -4.061375503     8.355392793    -6.728885247
 H       -6.251181155     6.564376000    -5.399909205
 H       -4.731551202     4.094954736    -6.304031731
 H       -4.589953946     1.675609419    -6.066830672
 H       -2.902349645     2.119788705    -2.127569910
 H       -3.015692046     4.535434496    -2.322732931
 H       -3.223619929    -0.024318357    -2.928163213
 H       -4.429987254    -0.357860347    -5.760879428
 H       -3.055020889    -1.978078342    -2.595878004
 H       -2.881894562    -4.378653058    -2.284931713
 H       -4.539905155    -4.972868433    -6.264298101
 H       -4.713548980    -2.560961952    -6.524630464
 H       -9.895300551    13.816182241    -8.345480502
 H       -8.233354204    13.220793808    -8.103794802
 H       -9.335867154    10.864581826    -7.635495618
 H      -10.835505116    11.539716151    -8.257479878
 H      -10.004279811    11.780768079   -10.490909546
 H       -8.316060148    11.948999978    -9.963280993
 H        2.264676899    -1.028896228     0.044319132
 H        2.268845447     0.551405790     0.867622638
 H        2.268756666     0.468708179    -0.915385875
 H       -2.428396687    -8.250905114    -2.460678757
 H       -2.975636010    -6.780940226    -1.616511002
 H       -1.516118454    -6.731751768    -2.643979175
 H       -5.164802239    -8.538811633    -3.620483061
 C       -6.044132251    -6.844030197    -2.582766603
 C       -6.222582296    -7.280273098    -5.039319681
 H       -3.522268041    -7.168534209    -6.458478771
 C       -1.439909084    -6.832279837    -5.951203358
 C       -2.691015746    -8.974583322    -5.590513139
 H       -2.371083574     8.133176283    -5.002934634
 C       -1.189759427     6.751497848    -3.820603537
 C       -1.749119452     6.454523842    -6.241540916
 H       -3.611138522     6.977117879    -2.078750299
 C       -4.850933348     8.573773874    -2.887581417
 C       -5.686196083     6.336383556    -2.127363383
 H       -4.565125990    14.101256775     1.277254582
 C       -5.631714078    12.263332216     1.698216443
 C       -3.296297129    12.775959612     2.442243970
 H       -1.375784437    13.456899836    -0.172744589
 C       -1.828729099    13.701524404    -2.288865571
 C       -2.585062106    15.233244678    -0.466504448
 H       -1.793640088    -0.857275746    -1.434115576
 C       -0.349910743    -0.072414400    -2.854222837
 C       -0.195489136    -2.302676839    -1.728635762
 H        0.083162515    -1.889055679     1.562679151
 C       -0.398722674    -0.193861925     2.831007647
 C       -2.041118181    -1.483885459     1.450697572
 H       -5.500942572    -6.987084871    -1.639891552
 H       -7.020369847    -7.332592550    -2.451978790
 H       -6.250062992    -5.769067898    -2.688315386
 H       -5.812098845    -7.748147508    -5.943050104
 H       -6.446473075    -6.230094192    -5.274231635
 H       -7.192545577    -7.765641226    -4.856956017
 H       -1.461380413    -5.736856978    -6.043909438
 H       -1.080231908    -7.214702391    -6.917086962
 H       -0.669301200    -7.086978178    -5.211668306
 H       -3.649036259    -9.485158630    -5.428032490
 H       -1.987674008    -9.332036657    -4.826825707
 H       -2.308400373    -9.339511782    -6.554884420
 H       -1.416253784     7.248815658    -2.866711708
 H       -0.216116142     7.142720953    -4.147009341
 H       -1.037810048     5.682248530    -3.615797283
 H       -2.436819579     6.629300155    -7.079675332
 H       -1.548760274     5.373922379    -6.200893274
 H       -0.798934228     6.932508283    -6.517248517
 H       -3.985712456     9.193233460    -3.160170645
 H       -5.208919150     8.959221346    -1.921313012
 H       -5.657433851     8.779721214    -3.605794924
 H       -5.505006679     5.261331598    -1.990816742
 H       -6.616560210     6.444297888    -2.701056247
 H       -5.891902675     6.745247499    -1.128115699
 H       -6.413540501    12.334305992     0.930013251
 H       -6.058765505    12.699992088     2.612620874
 H       -5.471982737    11.198730935     1.917044492
 H       -2.369854265    13.347216366     2.298765219
 H       -3.017326975    11.719422977     2.564459234
 H       -3.709421889    13.097817937     3.409021809
 H       -1.558529668    12.693553121    -2.630070652
 H       -0.944249080    14.331620470    -2.457398987
 H       -2.609133627    14.075631396    -2.968579167
 H       -2.778337080    15.396121575     0.601471366
 H       -3.445194371    15.621794651    -1.028547415
 H       -1.734270583    15.881321338    -0.723391327
 H       -0.720671078     0.963063397    -2.847055508
 H       -0.830122978    -0.559306016    -3.717729693
 H        0.722859763    -0.038292984    -3.082069679
 H       -0.436154948    -2.943483002    -0.871452669
 H        0.884665719    -2.380116091    -1.909145281
 H       -0.683018392    -2.760980222    -2.604295353
 H        0.636948105     0.129470505     3.000861901
 H       -0.668496327    -0.821212897     3.692485238
 H       -1.035965850     0.700074723     2.888575418
 H       -2.241469458    -2.113656612     0.573821143
 H       -2.780000607    -0.671959095     1.458335965
 H       -2.264337330    -2.105205572     2.330289212

