187   

Si        0.000000000     0.000000000     0.000000000
 C        1.865108195     0.000000000     0.000000000
 C       -0.679463004     1.710900050     0.000000000
 C        0.103437103     2.796990901     0.404406892
 C       -0.420424739     4.089660577     0.400911824
 C       -1.738024440     4.325412061    -0.000021607
 C       -2.522976973     3.235405053    -0.399354013
 C       -2.002895837     1.944157778    -0.397368925
 C       -2.329517431     5.658987678    -0.020350369
 C       -1.691353492     6.786867403     0.335356372
 C       -2.288197167     8.118344015     0.313001991
 C       -1.510310863     9.213542208     0.710226019
 C       -2.038314606    10.502568624     0.704900462
 C       -3.354514572    10.728352742     0.285863936
 C       -4.132916356     9.635648540    -0.114130940
 C       -3.605762904     8.345627295    -0.095172065
Si       -4.085645423    12.416329520     0.265322074
 C       -5.252464030    12.628424758    -1.126455763
 C       -5.146228104    11.986510523    -2.297875241
 C       -6.076538662    12.151797820    -3.415506182
 C       -5.855554961    11.420776820    -4.592354605
 C       -6.705402065    11.540215046    -5.679109483
 C       -7.791695969    12.440720185    -5.640993770
 C       -8.014214493    13.174259363    -4.462039027
 C       -7.177928505    13.009409763    -3.364326446
 N       -8.640321042    12.540593075    -6.763198224
 C       -7.974006295    12.529639739    -8.080748777
 C       -9.725551196    13.533852862    -6.685972240
 C       -6.924613790    13.645096388    -8.237809612
 C       -6.614808137    13.983408288    -9.705017164
 N       -7.759738393    14.456632930   -10.516983858
 C       -8.706556769    15.250334538    -9.832132267
 C       -8.237511275    16.371203558    -9.113904433
 C       -9.126026007    17.180000167    -8.426545125
 C      -10.506224891    16.926131886    -8.454353427
 C      -10.968107243    15.832028490    -9.188443052
 C      -10.088393572    15.006338135    -9.879956240
 C       -8.293762931    13.430752321   -11.427065576
 C      -11.402527879    17.812993135    -7.709483123
 C      -12.732842373    17.665919067    -7.665472954
Si      -13.901807491    18.736939997    -6.756124342
 C      -15.268419663    19.251145222    -7.873418563
 C      -15.090520721    19.229675211    -9.260729138
 C      -16.124000846    19.618724044   -10.112030353
 C      -17.350663938    20.047253359    -9.597355079
 C      -17.523390045    20.074022857    -8.206950344
 C      -16.495294697    19.682135399    -7.353539068
 C      -18.459194808    20.463240668   -10.450191711
 C      -18.424246365    20.484347157   -11.793396824
 C      -19.532029286    20.900093927   -12.647264940
 C      -20.760829969    21.324819277   -12.135531859
 C      -21.793047851    21.713657978   -12.989256099
 C      -21.615186879    21.692820790   -14.376101929
 C      -20.383344090    21.267769371   -14.892016119
 C      -19.357337974    20.874079190   -14.037565826
Si      -22.967339168    22.202843085   -15.516487758
 C      -24.336392016    23.085309447   -14.607414968
 C      -22.225429742    23.338553405   -16.851982574
 C      -23.691749815    20.662179934   -16.367807113
 C      -14.607331639    17.740498990    -5.296357672
 C      -13.036154911    20.286991980    -6.075795581
 C       -5.034682468    12.691254735     1.891025197
 C       -2.717159494    13.730690225     0.127475594
 C       -0.650232316    -0.913144945    -1.539081851
 C       -0.622761597    -0.915959900     1.547909918
 H        1.140853143     2.674870804     0.727767757
 H        0.210779718     4.918311964     0.716628029
 H       -3.552232084     3.396954660    -0.714380546
 H       -2.663572519     1.133819258    -0.718004387
 H       -3.370301739     5.691733771    -0.356558385
 H       -0.651292306     6.756284039     0.672184879
 H       -0.482145405     9.058511264     1.030999944
 H       -1.386347763    11.316308226     1.033466783
 H       -5.168964080     9.753269864    -0.450664099
 H       -4.232742841     7.512157784    -0.406845995
 H       -6.061878735    13.350353384    -0.941646493
 H       -4.341806902    11.267004612    -2.508922589
 H       -5.008203128    10.736394417    -4.650551478
 H       -6.532268938    10.934205472    -6.563875259
 H       -8.839267399    13.876292235    -4.391233176
 H       -7.381589989    13.578058453    -2.456066727
 H      -10.354152596    13.468049938    -7.591951972
 H       -9.373149373    14.575507397    -6.601451715
 H      -10.376149312    13.298960371    -5.825303738
 H       -7.466516705    13.029441623   -12.038989904
 H       -9.005596192    13.900484511   -12.130047657
 H       -8.795256640    12.589494962   -10.923852917
 H       -7.174104631    16.599207681    -9.108650876
 H       -8.745709368    18.034968347    -7.866203047
 H      -12.037146525    15.616251530    -9.230743376
 H      -10.485729306    14.165099897   -10.438871328
 H      -10.875370334    18.622199469    -7.187591403
 H      -13.230911542    16.837414326    -8.197130030
 H      -14.150036842    18.908851539    -9.720781077
 H      -15.963970056    19.588268771   -11.188348621
 H      -18.471021540    20.404730837    -7.786276192
 H      -16.687424777    19.722940329    -6.277960180
 H      -19.360517452    20.770772252    -9.911997544
 H      -17.522736944    20.177005111   -12.331728139
 H      -20.923404534    21.355028086   -11.059712439
 H      -22.732150319    22.034719106   -12.530108473
 H      -20.186836675    21.231027004   -15.967303283
 H      -18.408570204    20.544871230   -14.457178820
 H       -7.509107090    11.530276771    -8.231681665
 H       -8.762534756    12.618847730    -8.861357070
 H       -7.269021609    14.554532111    -7.703890751
 H       -5.988423306    13.353806978    -7.721800240
 H       -5.849554878    14.797246981    -9.736740218
 H       -6.150089816    13.105401701   -10.203874794
 H        2.263073345    -1.029509366    -0.044664206
 H        2.276204986     0.476132211     0.907257813
 H        2.259645787     0.547011673    -0.875703567
 H      -25.121253553    23.427866070   -15.305246407
 H      -23.950778827    23.976170025   -14.078987026
 H      -24.818943590    22.432000078   -13.859588027
 H      -21.446471948    22.719903783   -17.385786548
 C      -23.251830525    23.807555664   -17.898461754
 C      -21.520199870    24.569274403   -16.253780608
 H      -24.547434464    21.038102455   -17.000083274
 C      -22.695540328    19.942305442   -17.294210605
 C      -24.254354013    19.641761933   -15.361329869
 H      -15.288111202    18.445853276    -4.737729517
 C      -15.446144696    16.534746336    -5.755790595
 C      -13.520973914    17.253521119    -4.321151557
 H      -12.151886828    19.913669335    -5.482362814
 C      -12.511470717    21.204619066    -7.195260306
 C      -13.925520136    21.117118476    -5.133000568
 H       -5.451101835    13.738230237     1.835804868
 C       -6.214482360    11.715494574     2.049795895
 C       -4.137454953    12.598285197     3.137510179
 H       -2.051161161    13.585240062     1.026403384
 C       -1.860539839    13.551080688    -1.138837409
 C       -3.255209796    15.172367748     0.164441383
 H       -1.774703586    -0.925428538    -1.440436695
 C       -0.300213441    -0.184182106    -2.849024494
 C       -0.171480195    -2.372819218    -1.634420183
 H       -0.143396424    -1.936690280     1.513744343
 C       -0.189482983    -0.228579388     2.855752160
 C       -2.149998578    -1.105967395     1.572610111
 H      -23.747859642    22.980275584   -18.422249874
 H      -22.750536358    24.405115402   -18.673856053
 H      -24.033571223    24.451029426   -17.473505518
 H      -20.730659905    24.309588512   -15.533978652
 H      -22.211890735    25.258433692   -15.751420580
 H      -21.030982768    25.147848747   -17.050324685
 H      -22.306692474    20.581028573   -18.097294150
 H      -23.190087036    19.094337310   -17.790177872
 H      -21.837492261    19.520349979   -16.752126551
 H      -25.037556604    20.054673649   -14.712635604
 H      -23.478714823    19.209401972   -14.712848628
 H      -24.712697908    18.797897002   -15.896651581
 H      -16.270586837    16.808693705    -6.429294412
 H      -15.910285984    16.045859913    -4.887374930
 H      -14.847625555    15.763705683    -6.259946249
 H      -12.934272151    18.069894269    -3.880573266
 H      -12.815834897    16.547781333    -4.783464179
 H      -13.983862013    16.719316587    -3.479082004
 H      -11.833335637    20.700334447    -7.897078084
 H      -11.943461502    22.040499403    -6.763093899
 H      -13.319799305    21.656306371    -7.788692883
 H      -14.260738906    20.561461714    -4.248094513
 H      -14.815909835    21.524604032    -5.632495438
 H      -13.364760174    21.984519520    -4.754926869
 H       -6.933112223    11.760665121     1.220029411
 H       -6.780690380    11.953325019     2.961382341
 H       -5.892144881    10.669251617     2.153170253
 H       -3.321518092    13.332133789     3.143128521
 H       -3.692298530    11.601809612     3.271075627
 H       -4.730420784    12.791791972     4.043129806
 H       -1.391863206    12.560007660    -1.213056877
 H       -1.039695479    14.281710709    -1.146732171
 H       -2.429658681    13.715970994    -2.065363266
 H       -3.815498767    15.405521952     1.078754267
 H       -3.899281391    15.409597686    -0.693926263
 H       -2.419553424    15.886037709     0.127072681
 H       -0.660083154     0.854323521    -2.877382991
 H       -0.768990029    -0.695053271    -3.702043076
 H        0.778258831    -0.165601107    -3.054830725
 H       -0.450163104    -2.979614098    -0.763225888
 H        0.914835716    -2.459522437    -1.768976976
 H       -0.628521513    -2.861153518    -2.507382352
 H        0.898712890    -0.126582854     2.955572450
 H       -0.522841560    -0.820377022     3.720365557
 H       -0.630882431     0.770935521     2.979173058
 H       -2.531957469    -1.676063034     0.716337660
 H       -2.698116348    -0.153983686     1.615563318
 H       -2.444085976    -1.668769538     2.470530525

