187   

Si        0.000000000     0.000000000     0.000000000
 C        1.865331351     0.000000000     0.000000000
 C       -0.685850410     1.708161921     0.000000000
 C        0.120197322     2.813731587     0.288577826
 C       -0.414723178     4.102088321     0.284508108
 C       -1.765181026     4.313771455    -0.004239707
 C       -2.572391166     3.204291343    -0.290232926
 C       -2.041607082     1.917641151    -0.287156019
 C       -2.370177101     5.641284727    -0.020712713
 C       -1.715903670     6.787270474     0.233517255
 C       -2.328702411     8.111581361     0.214970659
 C       -1.532512623     9.228604503     0.498929291
 C       -2.075644573    10.511398422     0.492476551
 C       -3.426869864    10.708556155     0.185466375
 C       -4.223692524     9.593525727    -0.100725634
 C       -3.680671708     8.310237389    -0.080167421
Si       -4.180960577    12.387051178     0.166542177
 C       -5.474883833    12.529257573    -1.116517027
 C       -5.469360228    11.840956244    -2.266362435
 C       -6.501568459    11.950004618    -3.297287076
 C       -6.381394167    11.174016861    -4.459588405
 C       -7.329475270    11.238417367    -5.466567470
 C       -8.474265562    12.054108739    -5.319892144
 C       -8.597383810    12.831308604    -4.151005785
 C       -7.612046666    12.789192369    -3.173500443
 N       -9.423326491    12.108153973    -6.347155785
 C       -9.661239843    10.889674977    -7.136527918
 C      -10.611618575    12.944543369    -6.137928578
 C       -9.961827569     9.617787997    -6.321786625
 C      -11.388243533     9.548153950    -5.748328762
 N      -12.481329093     9.379657846    -6.726707751
 C      -12.953453837    10.583123662    -7.310731330
 C      -13.543559003    11.528534839    -6.447299993
 C      -14.025641859    12.724977396    -6.951233370
 C      -13.965057301    13.006015040    -8.325212244
 C      -13.405194060    12.053386393    -9.179167760
 C      -12.915071539    10.847946094    -8.687371355
 C      -12.278596575     8.251951560    -7.648740649
 C      -14.489698430    14.286941089    -8.803204793
 C      -14.487843684    14.668342038   -10.087335642
Si      -15.144466558    16.269993982   -10.680539665
 C      -16.519551828    16.881608011    -9.624007774
 C      -17.389767366    15.965252456    -9.018453862
 C      -18.435983754    16.410953878    -8.215554994
 C      -18.647261538    17.780445215    -8.007326220
 C      -17.782936380    18.691974059    -8.619865089
 C      -16.731613007    18.248978511    -9.421935482
 C      -19.757468526    18.197325357    -7.157339088
 C      -20.067751012    19.473635907    -6.873621063
 C      -21.178442174    19.889262681    -6.023320364
 C      -22.041755429    18.976847305    -5.411576382
 C      -23.091495326    19.418184867    -4.606006382
 C      -23.304071379    20.784754515    -4.399969313
 C      -22.439950778    21.702123350    -5.013449896
 C      -21.390131161    21.258587213    -5.812702413
Si      -24.684847713    21.383746514    -3.339741317
 C      -25.893767960    20.016860372    -2.952034095
 C      -23.982766719    22.061709299    -1.705523005
 C      -25.567208502    22.800756980    -4.254624177
 C      -13.721185787    17.532033146   -10.707544211
 C      -15.790960378    16.035518480   -12.453414346
 C       -4.976481837    12.716037604     1.863135034
 C       -2.848714289    13.707838167    -0.149359070
 C       -0.653018122    -0.904278948    -1.542959397
 C       -0.610920109    -0.926159450     1.546735839
 H        1.183668546     2.710608323     0.520852694
 H        0.233683601     4.946317221     0.511512645
 H       -3.627154276     3.347473439    -0.516848749
 H       -2.720076617     1.091287811    -0.517151146
 H       -3.437286794     5.653080042    -0.262336258
 H       -0.649492290     6.778260293     0.476007969
 H       -0.477794527     9.095833393     0.731222840
 H       -1.407488600    11.343585879     0.729868302
 H       -5.287050092     9.688356152    -0.346707871
 H       -4.322258527     7.459282849    -0.301045792
 H       -6.272331348    13.251532792    -0.887369214
 H       -4.677752655    11.122001393    -2.522925401
 H       -5.518611377    10.517507084    -4.581869775
 H       -7.185290201    10.659991348    -6.373863866
 H       -9.458373807    13.473779196    -4.000370442
 H       -7.722803430    13.413538259    -2.285705226
 H      -11.249045752    12.932603486    -7.041811165
 H      -10.296495912    13.993447646    -5.985669660
 H      -11.231130231    12.627729355    -5.283203622
 H      -12.068214394     7.343043360    -7.057724838
 H      -11.461763527     8.393356257    -8.373519430
 H      -13.215217340     8.068168708    -8.204962757
 H      -13.625899985    11.306000378    -5.385196113
 H      -14.476065386    13.449990476    -6.271762583
 H      -13.350690658    12.247434783   -10.251143716
 H      -12.490040094    10.126159378    -9.378099299
 H      -14.899812661    14.913651556    -7.998248060
 H      -14.063225645    14.027439579   -10.874709122
 H      -17.276704692    14.883825196    -9.150114526
 H      -19.098360495    15.684557852    -7.748108277
 H      -17.925681466    19.761239553    -8.475405374
 H      -16.090119962    19.009580165    -9.875246292
 H      -20.351136256    17.376025236    -6.745038379
 H      -19.475123258    20.295544372    -7.285969075
 H      -21.900754507    17.907755553    -5.559258331
 H      -23.732964601    18.656794964    -4.153616846
 H      -22.558488823    22.782241768    -4.889236416
 H      -20.728978106    21.985893744    -6.280112846
 H      -10.486671742    11.085567290    -7.858787645
 H       -8.751969349    10.719398552    -7.763210094
 H       -9.762562841     8.731214142    -6.951851171
 H       -9.244054566     9.539491117    -5.477267262
 H      -11.456475940     8.679559859    -5.049084749
 H      -11.586828920    10.453279410    -5.132161798
 H        2.262565000    -1.030250230    -0.032676581
 H        2.275388697     0.486042154     0.902542896
 H        2.260964041     0.536430821    -0.881575845
 H      -26.740423501    20.393567470    -2.350653674
 H      -25.418821034    19.199359376    -2.381895530
 H      -26.312110689    19.583760993    -3.878726468
 H      -24.879621600    22.355924836    -1.087218841
 C      -23.188298257    21.001945892    -0.920406356
 C      -23.098421219    23.308861583    -1.883579206
 H      -24.787626217    23.602295696    -4.409808090
 C      -26.085489705    22.374339108    -5.639989370
 C      -26.726638053    23.420088157    -3.454137797
 H      -14.153733811    18.484321840   -11.130325174
 C      -13.182149516    17.832977461    -9.297588883
 C      -12.549154613    17.103426973   -11.608417037
 H      -14.913330390    15.671632745   -13.061683193
 C      -16.900917620    14.972029307   -12.532108533
 C      -16.303158826    17.340843187   -13.086414007
 H       -5.414877753    13.753908930     1.806426278
 C       -6.118790369    11.731525431     2.171992722
 C       -3.964229969    12.686695138     3.021483461
 H       -2.102452969    13.608629507     0.690688888
 C       -2.108039547    13.482826107    -1.479801920
 C       -3.401935317    15.144054023    -0.123966113
 H       -1.777837387    -0.906283274    -1.448156698
 C       -0.292666705    -0.174943491    -2.849858239
 C       -0.186740068    -2.367779094    -1.640252197
 H       -0.113584002    -1.938419519     1.512753680
 C       -0.190103040    -0.231111380     2.854675932
 C       -2.134144468    -1.145308943     1.573331888
 H      -23.775629431    20.107213286    -0.677175598
 H      -22.851507760    21.418382587     0.039832316
 H      -22.281401020    20.671325174    -1.446985535
 H      -23.619051003    24.147883231    -2.362193758
 H      -22.184343582    23.105560575    -2.459021115
 H      -22.765273686    23.675635132    -0.901596183
 H      -25.298418985    21.969878938    -6.292462544
 H      -26.506338506    23.241463202    -6.168673894
 H      -26.887412447    21.626089893    -5.586922553
 H      -26.418727572    23.815821023    -2.477660909
 H      -27.553813608    22.718063944    -3.284779450
 H      -27.153573630    24.268677642    -4.008431164
 H      -13.951067101    18.202931497    -8.605206692
 H      -12.411187580    18.614939163    -9.346945049
 H      -12.706320315    16.960212474    -8.826805645
 H      -12.838466836    16.942870688   -12.654717412
 H      -12.048511567    16.191299765   -11.254324652
 H      -11.779505036    17.889026297   -11.621371937
 H      -16.593236605    13.989417744   -12.149436972
 H      -17.199314962    14.815446227   -13.578512896
 H      -17.813882931    15.266597494   -11.994330648
 H      -15.537620384    18.124575853   -13.151069326
 H      -17.169987473    17.762528932   -12.557293400
 H      -16.637016057    17.153139546   -14.117344493
 H       -6.913738847    11.733854538     1.413786301
 H       -6.599496752    11.998130533     3.123793935
 H       -5.770208373    10.694708982     2.284218964
 H       -3.163375497    13.430118053     2.919868132
 H       -3.492216084    11.702403936     3.152793524
 H       -4.472202526    12.910915059     3.970624718
 H       -1.632793593    12.495017221    -1.554681583
 H       -1.302781399    14.221870869    -1.594043184
 H       -2.761526413    13.600703604    -2.356791261
 H       -3.880691294    15.410826326     0.826654240
 H       -4.124185133    15.337699661    -0.929611760
 H       -2.583258593    15.864023561    -0.267212786
 H       -0.644875338     0.866238767    -2.876921113
 H       -0.762543568    -0.679974241    -3.705731589
 H        0.786568975    -0.164069301    -3.052120333
 H       -0.472160357    -2.974200859    -0.770999154
 H        0.899042617    -2.463729925    -1.772931019
 H       -0.646287443    -2.850217705    -2.515204064
 H        0.895952501    -0.107291074     2.953772385
 H       -0.510949412    -0.829654290     3.719314214
 H       -0.650569581     0.759683559     2.978938471
 H       -2.508967546    -1.709322664     0.709985174
 H       -2.699711537    -0.204749025     1.633872762
 H       -2.413705350    -1.727331521     2.463703080

