187   

Si        0.000000000     0.000000000     0.000000000
 C        1.865108551     0.000000000     0.000000000
 C       -0.678374372     1.711461847     0.000000000
 C        0.114185003     2.800656518     0.376091009
 C       -0.409053197     4.093564965     0.372783657
 C       -1.735403340     4.326593328     0.000301194
 C       -2.529774614     3.233584420    -0.371306510
 C       -2.010206143     1.942092940    -0.370017039
 C       -2.326073475     5.660677022    -0.018435670
 C       -1.677696673     6.790309946     0.312375718
 C       -2.270914534     8.123419252     0.292753301
 C       -1.479123543     9.219025675     0.662784044
 C       -2.002002984    10.509462495     0.659289380
 C       -3.334811338    10.733002789     0.291433547
 C       -4.127539397     9.641878889    -0.078783838
 C       -3.597962233     8.351894355    -0.081209200
Si       -4.030842613    12.434810706     0.284913233
 C       -5.857705842    12.358298647     0.307587896
 C       -6.680339221    13.015164915    -0.519706566
 C       -8.141418226    12.924125598    -0.465413658
 C       -8.897469073    13.662643169    -1.389073427
 C      -10.281358115    13.611350955    -1.379974091
 C      -10.955055134    12.835989319    -0.414405426
 C      -10.203681377    12.092133054     0.506934538
 C       -8.813769545    12.124585495     0.461655017
 N      -12.372134967    12.828288836    -0.462497970
 C      -13.014279073    14.140440043    -0.246364644
 C      -13.035446101    11.721340685     0.242726880
 C      -13.289724301    14.535340914     1.215066567
 C      -12.027296128    14.785927977     2.060826705
 N      -11.339309287    16.064327710     1.817473955
 C      -12.109836350    17.234595592     1.832617741
 C      -13.178638190    17.351652664     2.749584293
 C      -13.952187588    18.499499823     2.780854643
 C      -13.668998759    19.589269424     1.944220432
 C      -12.592909299    19.483181772     1.059237692
 C      -11.816896735    18.332959082     1.001027084
 C      -10.234605446    15.989664033     0.853069710
 C      -14.520053187    20.777117041     2.019614178
 C      -14.348136682    21.876345935     1.272541132
Si      -15.411505115    23.360290168     1.366873420
 C      -16.116634818    23.599352375     3.049178751
 C      -15.388019426    23.194661923     4.173782754
 C      -15.908195985    23.368795754     5.455193946
 C      -17.160059297    23.961580761     5.643414629
 C      -17.883640474    24.373850683     4.516938644
 C      -17.368540190    24.197848258     3.234897794
 C      -17.743791989    24.163952377     6.965343792
 C      -17.155991968    23.814922236     8.122373552
 C      -17.738959250    24.016906743     9.444655036
 C      -18.991703379    24.605735365     9.634632640
 C      -19.511069142    24.779565767    10.917452058
 C      -18.789736976    24.360367118    12.039697655
 C      -17.533406809    23.768126503    11.851788534
 C      -17.015230707    23.601311096    10.570620403
Si      -19.460766512    24.582365192    13.739492837
 C      -21.269209714    25.039051948    13.709253928
 C      -19.208661899    22.955759365    14.695728375
 C      -18.496810923    25.962861464    14.627492224
 C      -14.356384998    24.881039057     0.926829128
 C      -16.810138414    23.196539659     0.087282943
 C       -3.453111160    13.363461467     1.841914900
 C       -3.400702201    13.362274256    -1.250759158
 C       -0.651764720    -0.909853019    -1.540216118
 C       -0.621458660    -0.917597329     1.547340887
 H        1.158777267     2.681075805     0.676592763
 H        0.229933215     4.924576500     0.665934930
 H       -3.565727053     3.392937544    -0.664707915
 H       -2.677917295     1.129333140    -0.669303955
 H       -3.374000062     5.692029438    -0.331378645
 H       -0.629953533     6.759768982     0.625153119
 H       -0.442870636     9.062442870     0.956110154
 H       -1.337221116    11.325471742     0.955728425
 H       -5.173915246     9.759197654    -0.378895260
 H       -4.233075462     7.518806304    -0.376948311
 H       -6.254319238    11.704667550     1.102996952
 H       -6.318150195    13.678190442    -1.316138674
 H       -8.390024083    14.274730212    -2.135353633
 H      -10.856546863    14.155378578    -2.126825832
 H      -10.696164558    11.479732213     1.256348049
 H       -8.247859061    11.525710259     1.177087504
 H      -14.111120523    11.734161742    -0.006477745
 H      -12.930820002    11.748336336     1.338495145
 H      -12.627825906    10.763146125    -0.126898069
 H       -9.678450761    15.042771095     0.985784988
 H       -9.520011676    16.808735732     1.054722845
 H      -10.558653048    16.045869813    -0.198824274
 H      -13.396500859    16.539608309     3.436766319
 H      -14.786017443    18.561288299     3.481680079
 H      -12.351069047    20.316227877     0.397640128
 H      -10.994244848    18.290355111     0.295112292
 H      -15.324058442    20.685604084     2.764101952
 H      -13.540857618    21.939266987     0.527544360
 H      -14.399829450    22.729301522     4.088303156
 H      -15.325231689    23.039360021     6.313453137
 H      -18.859877774    24.838147489     4.641523633
 H      -17.978479377    24.540033370     2.394643895
 H      -18.730294009    24.636523326     6.962594842
 H      -16.169223495    23.342427071     8.124880441
 H      -19.575127453    24.936777882     8.777479104
 H      -20.495648637    25.247616316    11.002590121
 H      -16.925138479    23.420200716    12.691539430
 H      -16.037216100    23.140543912    10.444840726
 H      -12.403534044    14.931403007    -0.736165940
 H      -13.982314991    14.110521023    -0.802991627
 H      -13.924618740    15.447039652     1.214873654
 H      -13.903779404    13.758508806     1.707935103
 H      -12.299594959    14.760581730     3.143950662
 H      -11.300204561    13.954242327     1.916636966
 H        2.263092109    -1.029629975    -0.042743935
 H        2.275876167     0.477609405     0.906662334
 H        2.259975867     0.545275719    -0.876643429
 H      -21.674027444    25.131109124    14.732905586
 H      -21.863502750    24.268196230    13.185902023
 H      -21.439428896    26.002000222    13.196669673
 H      -18.094167250    22.776729173    14.712748546
 C      -19.698048712    23.018121473    16.153525207
 C      -19.867592092    21.753164465    13.996265742
 H      -18.997399740    26.086287712    15.631198562
 C      -17.015704542    25.623717756    14.872659365
 C      -18.577694777    27.309312103    13.884944359
 H      -13.955594509    24.693233392    -0.110765332
 C      -15.164432732    26.190038084     0.897914404
 C      -13.158657271    25.053058478     1.878351101
 H      -17.396980086    24.158615280     0.138896576
 C      -16.296581178    23.031326958    -1.354278643
 C      -17.765468531    22.034351571     0.412829869
 H       -2.328738625    13.424439627     1.768440238
 C       -4.004400222    14.797598929     1.925026737
 C       -3.804188815    12.613754969     3.139250886
 H       -3.939240142    14.353964696    -1.256674924
 C       -1.887967016    13.643778615    -1.217903804
 C       -3.737079455    12.624263549    -2.559434720
 H       -1.776354152    -0.918697668    -1.442449902
 C       -0.298617298    -0.180619892    -2.849127255
 C       -0.177331910    -2.370856026    -1.636396771
 H       -0.140516509    -1.937644341     1.512502627
 C       -0.189001810    -0.230281940     2.855489562
 C       -2.148336015    -1.110507556     1.572789544
 H      -19.215796135    23.810429518    16.740587345
 H      -19.468826012    22.072831654    16.666804645
 H      -20.784441094    23.155291171    16.235206221
 H      -19.524255146    21.611643097    12.961370396
 H      -20.963604581    21.816405617    13.975087275
 H      -19.621527577    20.824509559    14.530673691
 H      -16.869264508    24.714445008    15.469189076
 H      -16.532052233    26.437940952    15.432030989
 H      -16.443884777    25.512500487    13.940553768
 H      -19.605107080    27.668043569    13.742067226
 H      -18.094565608    27.282153339    12.897521378
 H      -18.057614873    28.088734584    14.460224239
 H      -15.982980939    26.180770503     0.167114363
 H      -14.511560699    27.029005540     0.616541296
 H      -15.592167518    26.450975120     1.876623419
 H      -12.499929868    24.174467027     1.914143313
 H      -13.462743032    25.281628084     2.910096480
 H      -12.533014836    25.894674387     1.549242503
 H      -15.665440742    23.863721508    -1.690495795
 H      -17.144882647    22.988726440    -2.052455483
 H      -15.731352781    22.100333028    -1.501699737
 H      -18.224145860    22.111824958     1.408418567
 H      -17.277545260    21.050742971     0.350662326
 H      -18.594847165    22.013447553    -0.307757528
 H       -3.720677229    15.423610232     1.069283036
 H       -3.608440261    15.301584292     2.818533585
 H       -5.099881229    14.831239903     2.013794568
 H       -3.408373709    11.588710052     3.171084316
 H       -4.885855169    12.558178948     3.322949851
 H       -3.371410385    13.135911262     4.004688109
 H       -1.576684922    14.256077530    -0.362021518
 H       -1.590739640    14.202471230    -2.117552258
 H       -1.281629544    12.726938306    -1.215515920
 H       -4.808493711    12.417781382    -2.686299596
 H       -3.205836648    11.666050297    -2.656082005
 H       -3.434876416    13.231547846    -3.424241583
 H       -0.655400952     0.858971117    -2.876799732
 H       -0.768436914    -0.689184664    -3.703004021
 H        0.780029819    -0.165123994    -3.054329008
 H       -0.458327696    -2.977594135    -0.765912055
 H        0.908792904    -2.460803311    -1.770473564
 H       -0.635353604    -2.857108183    -2.510057243
 H        0.899069924    -0.126264058     2.954968768
 H       -0.520829388    -0.823290863     3.719861054
 H       -0.632106654     0.768322097     2.979785520
 H       -2.530222022    -1.678095095     0.714807363
 H       -2.698111186    -0.159772287     1.620159247
 H       -2.440341544    -1.677321712     2.468899910

