187   

Si        0.000000000     0.000000000     0.000000000
 C        1.865326335     0.000000000     0.000000000
 C       -0.652002184     1.722456558     0.000000000
 C       -0.001234375     2.712795559    -0.745222367
 C       -0.480340124     4.021916762    -0.757164943
 C       -1.621808828     4.371645039    -0.030173247
 C       -2.276109750     3.377989921     0.709081460
 C       -1.801215240     2.068798636     0.720941502
 C       -2.159201930     5.727866155    -0.012970134
 C       -1.630528217     6.769022571    -0.677889874
 C       -2.169335888     8.124587792    -0.659488677
 C       -1.516303633     9.117772670    -1.400918798
 C       -1.994458006    10.425467125    -1.413157601
 C       -3.135110802    10.769987178    -0.677963881
 C       -3.785983412     9.781625990     0.068386859
 C       -3.304253961     8.473366981     0.078612155
Si       -3.781289042    12.490294908    -0.681581438
 C       -5.609871630    12.428338858    -0.639098561
 C       -6.395568640    13.109109983     0.204615985
 C       -7.859495975    13.034334516     0.209250450
 C       -8.568326696    13.800086024     1.147304301
 C       -9.953537209    13.764741267     1.193009690
 C      -10.662531773    12.928660864     0.314105601
 C       -9.962617005    12.125085011    -0.591090980
 C       -8.571370836    12.158732461    -0.615366491
 N      -12.091287177    12.955851260     0.431453824
 C      -12.676045273    14.123955276    -0.269497812
 C      -12.755294295    11.686486884     0.085891796
 C      -12.660307011    14.036946551    -1.808713934
 C      -12.289340975    15.364686757    -2.497786451
 N      -10.841060546    15.604849264    -2.685912945
 C      -10.116290987    14.532234004    -3.252887947
 C      -10.684032732    13.796781522    -4.314845353
 C       -9.992509822    12.740377555    -4.887346849
 C       -8.718555375    12.376141253    -4.431020510
 C       -8.141805309    13.136034483    -3.409587025
 C       -8.803863479    14.223329201    -2.855492180
 C      -10.215590796    16.266527557    -1.526885108
 C       -8.019846873    11.254081815    -5.061698487
 C       -6.802472448    10.841617017    -4.687157467
Si       -5.829811082     9.464458864    -5.388556028
 C       -4.143745958    10.103908204    -5.755913447
 C       -3.998296640    11.292147914    -6.484103213
 C       -2.730527553    11.791280555    -6.771586821
 C       -1.580578512    11.123096661    -6.330063221
 C       -1.729443094     9.939301810    -5.602709695
 C       -2.997180754     9.432058780    -5.321267599
 C       -0.272983577    11.682847353    -6.654732782
 C        0.900388018    11.133364004    -6.297778923
 C        2.210655635    11.688193437    -6.619373510
 C        2.371260908    12.870778385    -7.345798545
 C        3.643826750    13.365539854    -7.630955069
 C        4.785343387    12.689801986    -7.188451994
 C        4.626971379    11.503516121    -6.459075186
 C        3.355720022    11.009048513    -6.181506959
Si        6.471487205    13.330295176    -7.556887559
 C        6.418303006    15.094465629    -8.160320948
 C        7.517964957    13.208733694    -5.971336248
 C        7.278438723    12.247397785    -8.898288586
 C       -5.759947540     8.080193782    -4.084095656
 C       -6.610060680     8.762217534    -6.971279712
 C       -3.089271002    13.391459909     0.844935068
 C       -3.222078785    13.447539096    -2.224832787
 C       -0.636938523    -0.892647133    -1.555778731
 C       -0.645273887    -0.936570895     1.526615389
 H        0.896408173     2.500292360    -1.332954439
 H        0.046194210     4.773998688    -1.341697117
 H       -3.167983129     3.628028517     1.280774940
 H       -2.357510640     1.336695029     1.312727307
 H       -3.056521100     5.855979178     0.599734268
 H       -0.733218914     6.640843349    -1.290151972
 H       -0.627939864     8.867432148    -1.977435859
 H       -1.448774826    11.156912215    -2.017456956
 H       -4.682369389     9.996353037     0.659489567
 H       -3.823914515     7.721351969     0.668954558
 H       -6.039792943    11.749874503    -1.396671216
 H       -5.998302775    13.792064499     0.966346157
 H       -8.027420623    14.442601333     1.841301814
 H      -10.502150535    14.360384743     1.920463866
 H      -10.493646042    11.466361976    -1.273441560
 H       -8.041445337    11.499271010    -1.306261755
 H      -13.810239312    11.748907469     0.404515893
 H      -12.285789972    10.866813797     0.657772559
 H      -12.730782219    11.425032747    -0.982679385
 H      -10.858358351    17.088762246    -1.173714665
 H       -9.260214698    16.721901686    -1.845843993
 H      -10.018012467    15.585294006    -0.680363011
 H      -11.667444851    14.060699112    -4.692584187
 H      -10.451994312    12.186368053    -5.705494356
 H       -7.133566327    12.904239378    -3.055768006
 H       -8.305089916    14.795625992    -2.077378359
 H       -8.587034099    10.784548519    -5.873182639
 H       -6.270176904    11.339280597    -3.855127955
 H       -4.862241100    11.861224552    -6.842913426
 H       -2.634707763    12.711655944    -7.343825686
 H       -0.852693218     9.400031414    -5.249539273
 H       -3.049002275     8.499726897    -4.750380571
 H       -0.301293838    12.612481087    -7.229954947
 H        0.927115420    10.202425857    -5.723428009
 H        1.498654365    13.417909609    -7.697986281
 H        3.705703709    14.294561729    -8.204508101
 H        5.482798183    10.932798529    -6.087544046
 H        3.252959814    10.085062009    -5.615792057
 H      -13.720872565    14.232120860     0.097546379
 H      -12.132471010    15.030928171     0.076574469
 H      -11.952566542    13.245492698    -2.133221375
 H      -13.648572471    13.701549062    -2.172023156
 H      -12.754161225    15.397381493    -3.512397324
 H      -12.725701534    16.224344266    -1.944734369
 H        2.264319776    -1.028622924     0.051460720
 H        2.257756936     0.554008393     0.872598607
 H        2.277391270     0.472947587    -0.908188572
 H        7.436214794    15.485928175    -8.336380275
 H        5.933905735    15.752886927    -7.416436618
 H        5.858514793    15.186677810    -9.107476867
 H        7.544877005    12.112766425    -5.701903655
 C        8.970100806    13.683866363    -6.156074909
 C        6.887926226    13.968262064    -4.789789322
 H        8.277905332    12.724209610    -9.114898302
 C        7.530040421    10.796384695    -8.450700811
 C        6.466153416    12.226067394   -10.206094084
 H       -5.054027621     7.301566835    -4.494739809
 C       -5.209975305     8.562670612    -2.732090117
 C       -7.123483244     7.405662159    -3.846143253
 H       -7.662155364     8.465335392    -6.690136055
 C       -6.695404076     9.793729901    -8.111041059
 C       -5.884587919     7.509109649    -7.494059998
 H       -3.584538361    14.404876108     0.861004197
 C       -3.428278409    12.670762744     2.162399172
 C       -1.566832787    13.606942568     0.778761712
 H       -2.094076897    13.470457071    -2.178016883
 C       -3.627749054    12.768952141    -3.540455725
 C       -3.727176989    14.902063867    -2.242845401
 H       -0.183779893    -1.925328696    -1.525655729
 C       -2.168757006    -1.042252069    -1.581460454
 C       -0.184894280    -0.211592738    -2.860420358
 H       -1.771578476    -0.885829979     1.469288344
 C       -0.244711501    -2.422987337     1.547832202
 C       -0.207054609    -0.285154911     2.851030349
 H        9.510364916    13.136685852    -6.939388457
 H        9.536813733    13.528372669    -5.226417863
 H        9.044448400    14.755327906    -6.384512422
 H        5.863128979    13.642189336    -4.561286088
 H        6.862462069    15.055315147    -4.942708149
 H        7.475010333    13.798065263    -3.876005053
 H        8.176951751    10.718202860    -7.567812852
 H        8.037235783    10.239280603    -9.251982961
 H        6.601201897    10.248149329    -8.238961751
 H        6.313492643    13.221923714   -10.641555848
 H        5.477472848    11.759708333   -10.087292391
 H        6.994563349    11.635648064   -10.968352161
 H       -4.230163834     9.059192531    -2.798257372
 H       -5.061531888     7.707110230    -2.056647180
 H       -5.891267115     9.250394714    -2.212323302
 H       -7.546879678     6.946165441    -4.747640639
 H       -7.875859932     8.094258669    -3.436164638
 H       -7.015862872     6.594339170    -3.111606452
 H       -7.225982295    10.714087894    -7.832142170
 H       -7.243427621     9.368204728    -8.963450920
 H       -5.707302536    10.083317307    -8.496385743
 H       -5.859961965     6.684540897    -6.769797393
 H       -4.849540690     7.711698864    -7.803922980
 H       -6.399332142     7.119793222    -8.384126118
 H       -4.504422850    12.511171247     2.312832254
 H       -3.082053232    13.266824990     3.018470942
 H       -2.934447536    11.692109898     2.250669292
 H       -1.248631066    14.210310501    -0.081335398
 H       -1.000921415    12.664764877     0.754801867
 H       -1.223560258    14.146033246     1.673605814
 H       -3.313326872    11.716951257    -3.613459220
 H       -3.151629936    13.276099335    -4.393324781
 H       -4.709241900    12.810898883    -3.728450563
 H       -3.391477444    15.492579756    -1.381743340
 H       -4.823119285    14.974926185    -2.292842161
 H       -3.345260252    15.418730773    -3.135491745
 H       -2.565506728    -1.609359103    -0.729765737
 H       -2.478344599    -1.588410467    -2.484302480
 H       -2.692268542    -0.076057338    -1.613623531
 H        0.905660526    -0.138486399    -2.959005142
 H       -0.601373833     0.798889768    -2.980742449
 H       -0.532841570    -0.791495938    -3.727440855
 H       -0.593898728    -2.979963599     0.668759130
 H       -0.690998117    -2.919145008     2.421983452
 H        0.839720997    -2.574031111     1.630480217
 H       -0.487177309     0.774550933     2.931606178
 H        0.875784078    -0.352668978     3.022346970
 H       -0.686077740    -0.795467029     3.698772692

