187   

Si        0.000000000     0.000000000     0.000000000
 C        1.865057641     0.000000000     0.000000000
 C       -0.677104606     1.712027093     0.000000000
 C        0.087430703     2.786260800     0.466896937
 C       -0.431681590     4.080835666     0.464106088
 C       -1.725993696     4.330461588     0.000482107
 C       -2.492814533     3.252284171    -0.461146672
 C       -1.977837916     1.958926566    -0.458749933
 C       -2.312168613     5.666359922    -0.021977451
 C       -1.691000582     6.784454742     0.390342143
 C       -2.283281387     8.117910061     0.365140270
 C       -1.525882025     9.202692975     0.825178907
 C       -2.051262942    10.492955448     0.819295992
 C       -3.342789355    10.730793192     0.335752398
 C       -4.100414363     9.648353509    -0.127742804
 C       -3.577037688     8.356971992    -0.107667310
Si       -4.075603836    12.418420914     0.309630229
 C       -5.123634932    12.666672003    -1.167782167
 C       -4.912588650    12.056751713    -2.342183420
 C       -5.743192833    12.246399965    -3.531752884
 C       -5.414780630    11.547010110    -4.702814602
 C       -6.166357135    11.689117932    -5.856741348
 C       -7.318629368    12.505845690    -5.863642941
 C       -7.650621920    13.205341054    -4.688438410
 C       -6.857343642    13.088681195    -3.553578691
 N       -8.066799945    12.635471886    -7.047174534
 C       -8.192413221    11.431753274    -7.887920052
 C       -9.312700443    13.415403167    -6.973825474
 C       -8.796074993    10.219810934    -7.148689181
 C       -9.476385228     9.238279810    -8.120154231
 N      -10.945008447     9.399139024    -8.228380921
 C      -11.346823470    10.705186121    -8.622126998
 C      -10.948802831    11.147168937    -9.899851443
 C      -11.308245442    12.409213517   -10.342130618
 C      -12.099509622    13.254238124    -9.547764236
 C      -12.511868638    12.801041163    -8.293352622
 C      -12.150457964    11.539014098    -7.832214382
 C      -11.657522255     8.836325343    -7.067642656
 C      -12.449998726    14.578683216   -10.064844442
 C      -13.197117861    15.470679019    -9.400868600
Si      -13.632866833    17.124608840   -10.050410297
 C      -13.743598936    17.132604809   -11.885669156
 C      -14.192315559    15.990285170   -12.558765638
 C      -14.282903015    15.977624129   -13.949585479
 C      -13.940376833    17.107461026   -14.698021342
 C      -13.499838124    18.252407450   -14.021475863
 C      -13.404228593    18.267253069   -12.631997746
 C      -14.019691407    17.139408564   -16.154695853
 C      -14.424750794    16.112369752   -16.920836270
 C      -14.504621557    16.142712549   -18.377472213
 C      -14.159166026    17.269105860   -19.128449634
 C      -14.250787542    17.254114786   -20.520185449
 C      -14.683366560    16.106781997   -21.192205403
 C      -15.029295442    14.975018162   -20.441304429
 C      -14.942985875    14.995206226   -19.052118771
Si      -14.810016142    16.070086072   -23.028493749
 C      -13.957395791    17.536096642   -23.805174738
 C      -14.026167058    14.449053559   -23.646043052
 C      -16.643853920    16.089207786   -23.538339094
 C      -15.319261444    17.629641745    -9.331708141
 C      -12.315753900    18.364193669    -9.460631815
 C       -5.154246844    12.643348122     1.860192390
 C       -2.705955051    13.738778027     0.323044019
 C       -0.647848062    -0.917960798    -1.537388562
 C       -0.626843996    -0.911753918     1.548565290
 H        1.106640998     2.653400186     0.840159704
 H        0.184699337     4.900211435     0.829479067
 H       -3.503882067     3.424468008    -0.825252098
 H       -2.624007202     1.158064348    -0.828651080
 H       -3.333900937     5.709563851    -0.410978514
 H       -0.669841235     6.743200536     0.779943394
 H       -0.516109213     9.038657926     1.196065647
 H       -1.416637143    11.298181346     1.198929449
 H       -5.116185303     9.775917718    -0.517833991
 H       -4.187396382     7.531680545    -0.469455976
 H       -5.949332883    13.380806064    -1.034079774
 H       -4.088627771    11.345797883    -2.501252737
 H       -4.544242258    10.889597542    -4.711080747
 H       -5.863545899    11.166657266    -6.759581188
 H       -8.525304028    13.846497423    -4.652563473
 H       -7.127028175    13.654967931    -2.661158573
 H       -9.764921709    13.492192975    -7.980868663
 H       -9.082446139    14.445553956    -6.649095654
 H      -10.068163321    12.980851021    -6.300055750
 H      -11.414963196     7.761369955    -6.993781138
 H      -12.746502255     8.907905964    -7.235219752
 H      -11.412668749     9.313993143    -6.106240141
 H      -10.367026706    10.486150069   -10.539005504
 H      -10.983321197    12.744045309   -11.328322473
 H      -13.131753712    13.437239944    -7.660324678
 H      -12.484318479    11.219027948    -6.849723714
 H      -12.043213937    14.773048026   -11.067684260
 H      -13.587111929    15.255400460    -8.394519788
 H      -14.480067558    15.077606627   -12.025749953
 H      -14.628032833    15.074744830   -14.450254895
 H      -13.228938174    19.142880912   -14.585483721
 H      -13.054753216    19.189430447   -12.159879194
 H      -13.717921966    18.087642900   -16.608914456
 H      -14.726932531    15.164182658   -16.466147622
 H      -13.814940419    18.173403107   -18.629884041
 H      -13.968666485    18.166378872   -21.053106094
 H      -15.373278063    14.049800929   -20.912280602
 H      -15.218010996    14.107126717   -18.486163452
 H       -8.811012612    11.695639896    -8.777294009
 H       -7.185505874    11.178449974    -8.289690789
 H       -8.006057980     9.704623695    -6.571151660
 H       -9.521084596    10.568031599    -6.388083617
 H       -9.048919376     9.334882252    -9.143319236
 H       -9.272599413     8.188994431    -7.809337472
 H        2.263000544    -1.029091232    -0.053595343
 H        2.276691671     0.468623291     0.910863382
 H        2.259154737     0.554694192    -0.871143155
 H      -13.996236796    17.481023559   -24.907833390
 H      -12.892329179    17.575767166   -23.512747216
 H      -14.425937384    18.489223406   -23.503434895
 H      -14.623436213    13.616662496   -23.171785159
 C      -14.103035118    14.272718324   -25.172984522
 C      -12.562389605    14.293082487   -23.195740540
 H      -16.645662713    16.137787318   -24.665683556
 C      -17.417315913    14.827893294   -23.114693829
 C      -17.390103460    17.326573151   -23.006256410
 H      -15.196272951    17.626115979    -8.210330157
 C      -15.758481439    19.040501653    -9.760176006
 C      -16.430033016    16.627754977    -9.694305872
 H      -12.649146423    19.376023989    -9.831800757
 C      -12.195134878    18.436821712    -7.927869297
 C      -10.927869704    18.067155931   -10.056067296
 H       -5.566777916    13.691881378     1.803346118
 C       -6.341741856    11.664435669     1.893370905
 C       -4.361168444    12.511893873     3.172155856
 H       -2.108243165    13.560784690     1.263157121
 C       -1.757231591    13.608658286    -0.882065263
 C       -3.251368846    15.177330878     0.373767053
 H       -1.772602312    -0.927589448    -1.442483122
 C       -0.291382166    -0.195991951    -2.849452710
 C       -0.172391913    -2.379282917    -1.624742638
 H       -0.154143849    -1.935584334     1.515408735
 C       -0.189981803    -0.226279399     2.856140983
 C       -2.155415802    -1.091727037     1.571958688
 H      -15.128751746    14.300854564   -25.562878877
 H      -13.692932300    13.292995166   -25.458514555
 H      -13.516205631    15.021787348   -25.720971468
 H      -12.435063430    14.353232751   -22.105334763
 H      -11.892399720    15.036101380   -23.648282056
 H      -12.178701452    13.307397615   -23.495389749
 H      -16.992015408    13.899336014   -23.515897248
 H      -18.450215437    14.877982088   -23.489322554
 H      -17.493542082    14.721072015   -22.023441761
 H      -16.949399037    18.276806748   -23.334211055
 H      -17.451007831    17.349431696   -21.908609251
 H      -18.427127368    17.327021649   -23.371536940
 H      -15.060115787    19.827950419    -9.449172816
 H      -16.725816658    19.289480974    -9.299900022
 H      -15.904937520    19.132556108   -10.846109975
 H      -16.216161452    15.600777180    -9.368456201
 H      -16.641400795    16.596441028   -10.773120714
 H      -17.372012706    16.916040382    -9.206287116
 H      -13.130667655    18.721050738    -7.429704712
 H      -11.455167180    19.200095777    -7.645862675
 H      -11.848621405    17.494322273    -7.481136714
 H      -10.916690097    18.056665131   -11.154855078
 H      -10.511251007    17.108770749    -9.712750931
 H      -10.211431723    18.842370074    -9.749302081
 H       -6.989489695    11.734123854     1.008849389
 H       -6.981393675    11.876695126     2.761630748
 H       -6.027282078    10.615540500     1.993194317
 H       -3.548895553    13.243949126     3.265757394
 H       -3.927294319    11.511320534     3.311658681
 H       -5.025817285    12.679363164     4.031992497
 H       -1.281525516    12.621430592    -0.960845107
 H       -0.940164046    14.339067258    -0.800659016
 H       -2.256768706    13.810091337    -1.841229756
 H       -3.876986923    15.376060553     1.253067679
 H       -3.832713822    15.445153058    -0.519778637
 H       -2.418053296    15.893102243     0.422790755
 H       -0.647043064     0.843737520    -2.883717752
 H       -0.759117788    -0.709023234    -3.701731188
 H        0.787874575    -0.182234470    -3.051913761
 H       -0.456395722    -2.981849373    -0.752332026
 H        0.914245952    -2.469507249    -1.754338311
 H       -0.626975559    -2.870008211    -2.497656549
 H        0.898882109    -0.132946941     2.957236725
 H       -0.529096734    -0.814413516     3.721029167
 H       -0.623745073     0.776776394     2.977926287
 H       -2.539678855    -1.663665902     0.717943372
 H       -2.697663756    -0.136110115     1.608805063
 H       -2.454585376    -1.647992468     2.472251448

