187   

Si        0.000000000     0.000000000     0.000000000
 C        1.864836333     0.000000000     0.000000000
 C       -0.678171290     1.710668094     0.000000000
 C        0.096509171     2.792304440    -0.431277385
 C       -0.426169474     4.085541960    -0.427696641
 C       -1.731470661     4.325243599     0.008381168
 C       -2.507720208     3.239655085     0.435291455
 C       -1.991913467     1.947534580     0.426354702
 C       -2.324071891     5.656675442     0.031699795
 C       -1.706036816     6.786030594    -0.352325116
 C       -2.321052719     8.109000649    -0.319721291
 C       -1.569148083     9.210249959    -0.747966424
 C       -2.114737487    10.490888948    -0.734330770
 C       -3.427332943    10.698248521    -0.290844849
 C       -4.182277786     9.599906226     0.132330718
 C       -3.633852417     8.318658780     0.111962318
Si       -4.136999800    12.392258964    -0.277144262
 C       -5.493669296    12.621418031     0.925912148
 C       -5.626438138    11.968955311     2.088350731
 C       -6.734980208    12.188734369     3.021016502
 C       -6.778705152    11.450498782     4.213984237
 C       -7.807725043    11.625191622     5.125131006
 C       -8.841689399    12.545618922     4.859162793
 C       -8.798803487    13.290461891     3.670409669
 C       -7.749186665    13.116700272     2.774973039
 N       -9.871056194    12.689029313     5.820327862
 C      -10.564027330    11.444691615     6.208287680
 C      -10.772425914    13.839289265     5.647532637
 C      -10.923156906    10.489225605     5.057925928
 C      -11.738208301    11.182553417     3.952484845
 N      -12.257548443    10.258342672     2.929329709
 C      -11.312132984     9.465209313     2.248689428
 C      -10.018489863     9.967680529     1.991973655
 C       -9.084436297     9.193383175     1.323466566
 C       -9.415913658     7.920283936     0.835748573
 C      -10.707012511     7.438619515     1.060729370
 C      -11.648087725     8.193186594     1.749416830
 C      -13.503424850     9.592635801     3.347502138
 C       -8.397285625     7.137874400     0.135747710
 C       -8.602109958     5.913510925    -0.370617913
Si       -7.305339290     4.962039207    -1.240879264
 C       -6.142435780     6.113506395    -2.078173696
 C       -6.647053230     7.280783007    -2.668257583
 C       -5.792327364     8.172031650    -3.309360104
 C       -4.419757487     7.907165292    -3.399303510
 C       -3.923550464     6.734650652    -2.824754341
 C       -4.775383174     5.843075600    -2.173599861
 C       -3.561530548     8.869362687    -4.080313038
 C       -2.232751710     8.731444784    -4.223075368
 C       -1.367635415     9.688428707    -4.902305594
 C       -1.852751969    10.863994253    -5.480399792
 C       -0.989735683    11.752567888    -6.120966795
 C        0.381296995    11.486552733    -6.188481236
 C        0.871785042    10.311835723    -5.602427494
 C        0.007600490     9.426504471    -4.964669219
Si        1.529094072    12.651752094    -7.031029725
 C        0.609894170    13.841904605    -8.134762890
 C        2.473978593    13.641198537    -5.706832546
 C        2.781079079    11.643994591    -8.050016676
 C       -6.378420579     3.905190526     0.044667539
 C       -8.094514128     3.824296390    -2.539579863
 C       -2.771709610    13.665468398     0.084677881
 C       -4.845289940    12.721248563    -2.013154965
 C       -0.632369486    -0.905165004    -1.550485712
 C       -0.651272142    -0.917761758     1.535834498
 H        1.125419567     2.665505193    -0.778150343
 H        0.196605027     4.910699044    -0.767561817
 H       -3.529028823     3.405728905     0.777642156
 H       -2.645935180     1.139753547     0.766083881
 H       -3.354349915     5.689733534     0.403966267
 H       -0.676793896     6.764760784    -0.719884505
 H       -0.549003576     9.068092914    -1.098750707
 H       -1.482250564    11.310172586    -1.088099450
 H       -5.217251416     9.702312393     0.474749375
 H       -4.247006360     7.476402896     0.430002592
 H       -6.226867320    13.385800329     0.620529910
 H       -4.911805807    11.208418581     2.430397110
 H       -5.991625690    10.726834464     4.429603288
 H       -7.819489043    11.056351514     6.051321927
 H       -9.580284848    14.005189214     3.432661925
 H       -7.735897733    13.709408448     1.859122168
 H      -11.381404449    13.958051396     6.560636335
 H      -11.450049585    13.766595553     4.783445522
 H      -10.169387522    14.760391664     5.547360378
 H      -14.159453449    10.312865881     3.863829532
 H      -13.340570884     8.730719379     4.014172922
 H      -14.051240374     9.253753701     2.449093043
 H       -9.736435477    10.964073740     2.329093400
 H       -8.080664409     9.593047199     1.161527604
 H      -10.991689587     6.452599636     0.691524349
 H      -12.638423781     7.778276109     1.901774634
 H       -7.433525403     7.663155153     0.051957801
 H       -9.570668793     5.404516996    -0.273151350
 H       -7.711740414     7.535342208    -2.634659589
 H       -6.199606494     9.076946240    -3.756443732
 H       -2.859405876     6.506328400    -2.876095139
 H       -4.325438901     4.939914933    -1.750053876
 H       -4.080158875     9.746195786    -4.478327453
 H       -1.718304834     7.856045185    -3.814994810
 H       -2.917105618    11.090801432    -5.446612133
 H       -1.428492560    12.651555571    -6.562041252
 H        1.933744558    10.053165137    -5.625177433
 H        0.405910736     8.519000851    -4.514958055
 H       -9.892672150    10.913077101     6.926050403
 H      -11.478596369    11.707316074     6.783676017
 H       -9.996615277    10.060427259     4.620704350
 H      -11.483361124     9.625059808     5.459832305
 H      -12.593830926    11.739900782     4.392919244
 H      -11.109543328    11.944251597     3.431054155
 H        2.263182452    -1.029040135     0.052430376
 H        2.258894379     0.554021672     0.871595914
 H        2.275704660     0.469570571    -0.910726561
 H        1.309204610    14.504849752    -8.674856507
 H       -0.080731854    14.483839815    -7.560606223
 H        0.015132391    13.299462575    -8.892127894
 H        3.106937402    14.384922261    -6.271125771
 C        1.530726894    14.423970919    -4.774438453
 C        3.409681988    12.774270885    -4.845258857
 H        3.332703665    10.994692311    -7.309396635
 C        2.098094512    10.716687297    -9.071481230
 C        3.821051455    12.513739716    -8.778680239
 H       -5.458543430     3.512558401    -0.478360566
 C       -5.932490378     4.738170593     1.260521193
 C       -7.185530406     2.694489774     0.545768056
 H       -8.797694514     3.145214693    -1.976835941
 C       -8.917662812     4.603744279    -3.580821049
 C       -7.063115333     2.947063463    -3.271362476
 H       -2.018082836    13.562234003    -0.749300887
 C       -3.280980288    15.117720375     0.085223975
 C       -2.052197218    13.385484390     1.415982131
 H       -5.275860256    13.762350884    -1.990314870
 C       -3.773968684    12.669147142    -3.115196431
 C       -5.976610766    11.737384247    -2.359767814
 H       -0.172886403    -1.934771296    -1.516301159
 C       -2.163324139    -1.064859912    -1.578993339
 C       -0.183601741    -0.224507210    -2.856596035
 H       -1.775385210    -0.933856675     1.434067766
 C       -0.167744794    -2.375899562     1.630022755
 C       -0.307286690    -0.189595306     2.847851646
 H        0.880720762    15.130934429    -5.305761402
 H        2.117017090    15.022257128    -4.062324360
 H        0.887268058    13.767918315    -4.170121880
 H        4.174675978    12.246601872    -5.428813661
 H        2.868433940    12.028717523    -4.245707574
 H        3.953591593    13.406923686    -4.128681698
 H        1.376809584    10.024056436    -8.614333614
 H        2.849031903    10.090409968    -9.573808345
 H        1.572292856    11.264687599    -9.864595121
 H        4.399770407    13.157159088    -8.103411764
 H        3.377120796    13.154114744    -9.552366159
 H        4.551491258    11.872493683    -9.293245792
 H       -5.318248724     5.609263742     0.994451500
 H       -5.331272576     4.123850996     1.945150746
 H       -6.781902566     5.110928407     1.852759706
 H       -7.465278213     1.997010189    -0.253943739
 H       -8.104223112     2.980313763     1.075133787
 H       -6.587072034     2.113846251     1.262676687
 H       -9.716484857     5.213650206    -3.137436008
 H       -9.410036748     3.905450273    -4.272101687
 H       -8.299821363     5.267130723    -4.203458617
 H       -6.484287736     2.299835194    -2.599577885
 H       -6.347955196     3.534691099    -3.865719211
 H       -7.572478238     2.278688127    -3.979938945
 H       -3.745812653    15.416852944    -0.862731021
 H       -2.441731627    15.809612287     0.246753981
 H       -4.001479829    15.317688415     0.890467030
 H       -1.605847496    12.382238796     1.466945628
 H       -2.709242608    13.499477348     2.289925719
 H       -1.226354277    14.096909793     1.556368536
 H       -2.989512488    13.427654815    -2.996184355
 H       -4.233133882    12.854520739    -4.096370583
 H       -3.276824132    11.688418583    -3.183624927
 H       -6.822958791    11.782220322    -1.660042277
 H       -5.633401369    10.691198724    -2.395275682
 H       -6.385724054    11.965305422    -3.353400655
 H       -2.557883944    -1.631543468    -0.726194668
 H       -2.465987242    -1.618165759    -2.479967172
 H       -2.692690662    -0.101968370    -1.618983009
 H        0.906522333    -0.142605076    -2.953817229
 H       -0.606364968     0.783005771    -2.979975274
 H       -0.525835034    -0.809134760    -3.722658398
 H       -0.437982103    -2.981160397     0.755154379
 H       -0.629031285    -2.868564963     2.498348218
 H        0.918017555    -2.458728587     1.771763954
 H       -0.671424304     0.847375899     2.877243974
 H        0.770727081    -0.166776586     3.056056536
 H       -0.775743909    -0.704055969     3.698920435

