187   

Si        0.000000000     0.000000000     0.000000000
 C        1.865171114     0.000000000     0.000000000
 C       -0.682549148     1.709543056     0.000000000
 C        0.120275120     2.809516765    -0.317868160
 C       -0.409980043     4.099738888    -0.313997597
 C       -1.753283066     4.318925835     0.001427947
 C       -2.557607803     3.215129022     0.315767910
 C       -2.031020443     1.926655121     0.314291264
 C       -2.352739527     5.648975597     0.018687886
 C       -1.698819223     6.789489744    -0.259862998
 C       -2.304804879     8.116892059    -0.240697800
 C       -1.509495925     9.227290428    -0.551742513
 C       -2.045899241    10.512929279    -0.545868378
 C       -3.390000552    10.718944875    -0.214716090
 C       -4.186550449     9.610873620     0.097927271
 C       -3.649663352     8.324950987     0.079535611
Si       -4.133898582    12.400243535    -0.195902066
 C       -5.388959303    12.565641936     1.125106293
 C       -5.348296725    11.890556541     2.281471227
 C       -6.349189068    12.018103679     3.342754724
 C       -6.193094264    11.253775654     4.510175436
 C       -7.110988741    11.337121020     5.543659817
 C       -8.205695897    12.219511957     5.448041991
 C       -8.369108999    12.979592033     4.281677101
 C       -7.458450810    12.859034362     3.236410601
 N       -9.111938381    12.257588679     6.543401179
 C       -8.497059388    12.730534222     7.805494437
 C      -10.408321809    12.905056194     6.274839710
 C       -7.856223138    14.127733479     7.719034762
 C       -6.330277803    14.051165084     7.504243623
 N       -5.770283609    15.222384314     6.802519056
 C       -6.085111856    16.479023069     7.359267797
 C       -6.004362470    16.643471771     8.759125182
 C       -6.306527968    17.863952810     9.339072530
 C       -6.654654665    18.973562625     8.553994262
 C       -6.705069828    18.815399346     7.167033323
 C       -6.419227533    17.593374571     6.569996730
 C       -5.856109118    15.104971956     5.337699825
 C       -6.964737469    20.240359217     9.219402445
 C       -7.308518113    21.362706122     8.574442999
Si       -7.704623925    22.966784560     9.355087268
 C       -9.294632333    23.608694060     8.688753135
 C      -10.196214836    22.746045384     8.056706556
 C      -11.402152204    23.230117219     7.550750636
 C      -11.737987217    24.581017580     7.675145792
 C      -10.835503487    25.441686473     8.314569287
 C       -9.628248128    24.962876577     8.816488153
 C      -12.987894729    25.131512911     7.161382184
 C      -13.935930431    24.418165754     6.530389709
 C      -15.185902804    24.968221225     6.016499487
 C      -15.520593599    26.319530636     6.135817896
 C      -16.727088978    26.803047824     5.629686426
 C      -17.629539309    25.942020578     4.997717947
 C      -17.296609213    24.585916679     4.877409355
 C      -16.089273899    24.107396956     5.378576746
Si      -19.225886638    26.564167337     4.324392395
 C      -19.603577231    28.285895043     4.934868508
 C      -19.144610521    26.594280159     2.422871456
 C      -20.604288844    25.362058587     4.852389181
 C       -7.842461244    22.797119367    11.244185028
 C       -6.309975632    24.197239996     8.951561629
 C       -2.792790768    13.720317530     0.082683503
 C       -4.973789700    12.721654805    -1.871210321
 C       -0.614481400    -0.921306406    -1.548133790
 C       -0.654082619    -0.907155281     1.540818777
 H        1.178067508     2.700504645    -0.572617546
 H        0.236743730     4.939372761    -0.561937067
 H       -3.606850826     3.363911909     0.564137829
 H       -2.706793452     1.105056369     0.568277340
 H       -3.414479042     5.667496313     0.283027637
 H       -0.637860976     6.773297315    -0.524847795
 H       -0.460288669     9.087155400    -0.804438689
 H       -1.378457739    11.339536823    -0.803885187
 H       -5.244668144     9.712492933     0.362766391
 H       -4.290823135     7.479249094     0.321920406
 H       -6.192008719    13.286576902     0.909745535
 H       -4.552449152    11.170996765     2.522014237
 H       -5.343165998    10.575946013     4.601578707
 H       -7.000846153    10.712543760     6.427810983
 H       -9.204499531    13.665821935     4.179457421
 H       -7.614170051    13.444713431     2.329522292
 H      -11.093035692    12.680457039     7.111825237
 H      -10.857343770    12.465649241     5.366958560
 H      -10.356091260    13.998172731     6.153296401
 H       -5.503792685    14.103498139     5.025872032
 H       -5.178709697    15.841190941     4.870552586
 H       -6.873945621    15.239725718     4.937929739
 H       -5.703982027    15.808522611     9.386133860
 H       -6.257303916    17.965108782    10.423440881
 H       -6.972638609    19.662064289     6.532836988
 H       -6.475042750    17.511713475     5.488979793
 H       -6.890781041    20.182123009    10.313247023
 H       -7.364010155    21.390136476     7.473265874
 H       -9.989271196    21.677530984     7.935831607
 H      -12.085070942    22.540762923     7.057864545
 H      -11.078439073    26.496988575     8.421529553
 H       -8.962677822    25.680740184     9.303658129
 H      -13.116525642    26.205319327     7.325955655
 H      -13.807230342    23.344204738     6.366410888
 H      -14.837499488    27.010005497     6.627246674
 H      -16.932710146    27.870051050     5.752356016
 H      -17.963128423    23.866173557     4.393965792
 H      -15.847805641    23.051315690     5.274313227
 H       -9.285443106    12.718935104     8.591183133
 H       -7.748017534    11.970873344     8.122604088
 H       -8.320891185    14.709410281     6.899454134
 H       -8.073783133    14.707921139     8.634913959
 H       -5.807392876    13.950986738     8.481799887
 H       -6.061507967    13.138465577     6.923733649
 H        2.262765465    -1.029485776     0.049749303
 H        2.261196488     0.551112476     0.872365067
 H        2.275156944     0.470900378    -0.910570963
 H      -20.584963833    28.632925508     4.565045379
 H      -18.845228346    29.014784254     4.599230872
 H      -19.635903955    28.316350726     6.039172405
 H      -20.122160306    27.044286903     2.083578586
 C      -18.001954000    27.481625632     1.895751756
 C      -19.017347220    25.198259732     1.787362939
 H      -20.329600285    24.361876299     4.406741433
 C      -20.683104681    25.190357246     6.380164944
 C      -21.994873125    25.749377972     4.318689678
 H       -6.883392004    22.307234167    11.581739958
 C       -7.968367827    24.146854776    11.973164881
 C       -9.017457994    21.896545374    11.667631176
 H       -6.580273193    25.157788821     9.478117817
 C       -4.935745934    23.739275571     9.470450561
 C       -6.205076029    24.495090236     7.445181179
 H       -2.062645497    13.609651387    -0.770221067
 C       -3.342027877    15.157904636     0.053865850
 C       -2.027989381    13.506255929     1.401260879
 H       -5.400854220    13.764201294    -1.812528499
 C       -3.993482060    12.672333579    -3.055920648
 C       -6.132823639    11.745046700    -2.139546789
 H       -0.121013455    -1.935500243    -1.515839471
 C       -2.138723936    -1.133609108    -1.573396051
 C       -0.191755581    -0.226070563    -2.855302758
 H       -1.778706631    -0.912412953     1.443204414
 C       -0.183755242    -2.369339398     1.638098950
 C       -0.298886827    -0.177670062     2.849106296
 H      -18.063924047    28.522637977     2.238027321
 H      -18.028961193    27.517604363     0.797205257
 H      -17.006426551    27.101198803     2.166504918
 H      -19.841878984    24.523095654     2.048756573
 H      -18.074346440    24.696276439     2.045846663
 H      -19.027347619    25.283141111     0.690820578
 H      -19.735900492    24.857935031     6.828751971
 H      -21.428940373    24.424206934     6.635588742
 H      -20.991346761    26.107070044     6.900125004
 H      -22.035921023    25.822119708     3.224215287
 H      -22.362986116    26.698155834     4.731098045
 H      -22.732177862    24.984636796     4.603402799
 H       -7.115947808    24.816315611    11.801520217
 H       -8.014765176    23.983416341    13.059744980
 H       -8.884832121    24.692618524    11.708225096
 H       -8.986659560    20.893483365    11.220694724
 H       -9.996994993    22.333064060    11.424311022
 H       -9.007766801    21.750221390    12.756754076
 H       -4.908088587    23.590635344    10.557541903
 H       -4.175086107    24.500131150     9.244511076
 H       -4.588779626    22.808461941     8.998787615
 H       -7.142203318    24.868294537     7.008654139
 H       -5.889036399    23.622394113     6.857283751
 H       -5.451862229    25.275741229     7.267158700
 H       -3.833965777    15.417921195    -0.891956087
 H       -2.518347403    15.876367478     0.176772090
 H       -4.050437223    15.361829921     0.869007571
 H       -1.556540426    12.516737044     1.478216373
 H       -2.662675241    13.639114792     2.289764369
 H       -1.215408525    14.241211987     1.489987697
 H       -3.184081038    13.410012155    -2.983526021
 H       -4.524939216    12.891581232    -3.993467497
 H       -3.533351031    11.682722002    -3.190377515
 H       -6.909666154    11.764550278    -1.363246490
 H       -5.797397929    10.703337473    -2.247995645
 H       -6.633670073    12.004753958    -3.083117679
 H       -2.513518022    -1.705442054    -0.715121912
 H       -2.423118259    -1.704826169    -2.469205609
 H       -2.700543603    -0.190125985    -1.622291124
 H        0.894820261    -0.108148899    -2.955644684
 H       -0.647205627     0.767288941    -2.977130225
 H       -0.516917576    -0.821242499    -3.720684428
 H       -0.463574167    -2.975161139     0.766603381
 H       -0.645701220    -2.854665918     2.510234166
 H        0.901758226    -2.461985311     1.775348847
 H       -0.654718735     0.862230839     2.876425294
 H        0.779873152    -0.163297813     3.053619140
 H       -0.768874371    -0.685380443     3.703435862

