187   

Si        0.000000000     0.000000000     0.000000000
 C        1.865255300     0.000000000     0.000000000
 C       -0.682455041     1.709452047     0.000000000
 C        0.120010302     2.808752906     0.321261282
 C       -0.409899527     4.099069789     0.317435187
 C       -1.752371498     4.319388647    -0.001263757
 C       -2.556154171     3.216138554    -0.318703511
 C       -2.030081257     1.927413524    -0.317079612
 C       -2.350786582     5.649890487    -0.018419182
 C       -1.695811589     6.788953523     0.263422007
 C       -2.297081959     8.118292946     0.245423424
 C       -1.494885599     9.223515062     0.561233384
 C       -2.025137903    10.510026449     0.556934560
 C       -3.371201881    10.722530572     0.227141952
 C       -4.172714341     9.622026181    -0.088598788
 C       -3.640027839     8.332881733    -0.075314641
Si       -4.040207144    12.432005041     0.230732868
 C       -5.513904017    12.716369432    -0.811211417
 C       -5.783349170    12.042472820    -1.937244926
 C       -6.968873362    12.282189456    -2.761320453
 C       -7.154652854    11.518159047    -3.923558238
 C       -8.262012577    11.711291728    -4.732968399
 C       -9.204506447    12.709166063    -4.414413672
 C       -9.024024352    13.473496555    -3.252290155
 C       -7.926374939    13.242997999    -2.430590832
 N      -10.320019554    12.864556120    -5.277122317
 C       -9.968180251    13.137457339    -6.690052197
 C      -11.408050443    13.723174147    -4.778682108
 C       -8.736298300    14.029571356    -6.931580914
 C       -8.814613442    15.375203965    -6.189309031
 N       -7.755834716    16.327447244    -6.560750809
 C       -6.420380868    15.992499387    -6.270665040
 C       -6.098283934    15.048494641    -5.273511062
 C       -4.775139662    14.733415444    -5.004124025
 C       -3.722028309    15.394134890    -5.653612319
 C       -4.042617578    16.358076084    -6.613285975
 C       -5.362375068    16.659378785    -6.921212943
 C       -8.002894014    16.974525826    -7.861937061
 C       -2.339910726    15.028415370    -5.337532581
 C       -1.260592183    15.593914223    -5.897351821
Si        0.465997240    15.133108336    -5.498763234
 C        0.580540696    14.548883181    -3.757082205
 C        0.182796780    15.401029236    -2.719219974
 C        0.259388373    14.983325035    -1.391695352
 C        0.731680340    13.706737681    -1.070288788
 C        1.137797289    12.859625154    -2.108257309
 C        1.073088397    13.279079901    -3.434866812
 C        0.829014196    13.227628993     0.303671980
 C        0.472955894    13.941149840     1.385182343
 C        0.569617181    13.463692022     2.759404582
 C        1.051894204    12.193070895     3.082307409
 C        1.127255656    11.776999655     4.411296486
 C        0.703593242    12.618675264     5.444119742
 C        0.213162098    13.891693086     5.121828274
 C        0.149928917    14.308620488     3.795652743
Si        0.793925769    12.090452312     7.204640886
 C        1.249873962    10.288266964     7.357028297
 C        2.090103400    13.126347920     8.134992665
 C       -0.918911945    12.405160235     7.974897962
 C        1.001809788    13.755872780    -6.701948463
 C        1.601142409    16.633952872    -5.768008040
 C       -4.334844266    13.019825361     2.007483406
 C       -2.740761119    13.529681839    -0.634038435
 C       -0.652385273    -0.905857655    -1.542470360
 C       -0.616003757    -0.923163737     1.546443324
 H        1.176971708     2.699113657     0.578628646
 H        0.236282483     4.938148637     0.568053612
 H       -3.604757471     3.365784109    -0.569172488
 H       -2.705646730     1.106382976    -0.573089642
 H       -3.411574911     5.670434750    -0.285376910
 H       -0.635586417     6.769454251     0.531566563
 H       -0.447516920     9.076426475     0.816107154
 H       -1.352724258    11.334993363     0.818041519
 H       -5.230677433     9.730225699    -0.347008940
 H       -4.284518414     7.490925535    -0.319988257
 H       -6.174592596    13.521817042    -0.454393532
 H       -5.137901216    11.242333731    -2.324136256
 H       -6.421899840    10.756333043    -4.192114327
 H       -8.410036377    11.094983321    -5.616193003
 H       -9.734032307    14.247130094    -2.976847984
 H       -7.810602245    13.841226139    -1.525707691
 H      -12.287032472    13.600097403    -5.435181971
 H      -11.158707000    14.793677687    -4.724637312
 H      -11.713272359    13.377380103    -3.774503288
 H       -9.084806215    17.084937488    -8.038843308
 H       -7.568576888    16.423637997    -8.711955989
 H       -7.577174841    17.994762886    -7.841660807
 H       -6.883282961    14.539808057    -4.715642463
 H       -4.556694823    13.971783674    -4.251356900
 H       -3.246446098    16.889685214    -7.135657394
 H       -5.563042094    17.416651685    -7.671160174
 H       -2.267727925    14.240370333    -4.573330836
 H       -1.358096599    16.377550870    -6.662642534
 H       -0.210549912    16.404555294    -2.911784995
 H       -0.052095606    15.664701454    -0.601788140
 H        1.509498215    11.862264678    -1.880182643
 H        1.416909035    12.577480854    -4.200088434
 H        1.225142109    12.213304481     0.408719382
 H        0.078330622    14.955983102     1.278984889
 H        1.379207936    11.515316753     2.296007419
 H        1.517394174    10.773836877     4.604366341
 H       -0.134660596    14.589991115     5.888378659
 H       -0.230706010    15.301642846     3.564418379
 H       -9.789892335    12.141909058    -7.165063988
 H      -10.852251412    13.568910985    -7.206953726
 H       -7.813676751    13.493381356    -6.624984325
 H       -8.623435960    14.202871157    -8.018059971
 H       -9.798713503    15.861440078    -6.372950946
 H       -8.756940632    15.215445532    -5.085819836
 H        2.262644542    -1.029800622    -0.044033969
 H        2.275554993     0.476132263     0.907674861
 H        2.260938861     0.546180184    -0.875562487
 H        1.267079011     9.969703948     8.414668415
 H        2.247363860    10.081337355     6.931571615
 H        0.518230375     9.648102802     6.830768842
 H        2.133648643    12.691802582     9.175813595
 C        3.492943559    13.010639422     7.510491362
 C        1.728416553    14.617155651     8.259131665
 H       -1.088102171    13.519016934     7.904676925
 C       -2.049886249    11.708012785     7.196849533
 C       -1.007864712    12.006209754     9.458183772
 H        2.001047333    13.388053726    -6.329838114
 C        0.020155944    12.569619416    -6.711501042
 C        1.189547345    14.247556982    -8.148836464
 H        1.507657010    16.891313044    -6.863430308
 C        1.181368070    17.873430370    -4.957873278
 C        3.079641371    16.324320451    -5.473409192
 H       -4.627171749    14.107170218     1.936518832
 C       -5.485547677    12.258427334     2.691148955
 C       -3.078816803    12.921101230     2.890799937
 H       -1.806307831    13.488876645    -0.004365945
 C       -2.415880290    12.965900173    -2.029023421
 C       -3.169235375    14.999884783    -0.768628745
 H       -1.777248937    -0.907769134    -1.447677537
 C       -0.291616812    -0.177431242    -2.849791066
 C       -0.185909398    -2.369366542    -1.638510368
 H       -0.124575978    -1.938165199     1.512233869
 C       -0.191703626    -0.231285211     2.854986441
 C       -2.140739780    -1.132056633     1.571266588
 H        3.866819288    11.979575543     7.465163511
 H        4.220653116    13.574804889     8.111484698
 H        3.544377717    13.427737943     6.494555305
 H        0.764144812    14.793246202     8.752361633
 H        1.712166879    15.133749721     7.289405286
 H        2.482885377    15.136144340     8.868562238
 H       -2.084457960    11.989695536     6.134215242
 H       -3.025670820    11.986107477     7.619931679
 H       -1.993313732    10.612273424     7.245568700
 H       -0.272163696    12.518256420    10.091640879
 H       -0.893050836    10.925874555     9.618549396
 H       -1.996744368    12.272140621     9.859503182
 H       -0.157430681    12.131038691    -5.720305883
 H        0.413016466    11.759390234    -7.341159055
 H       -0.962300234    12.837305299    -7.128738965
 H        1.958651400    15.023888422    -8.248694033
 H        0.262063617    14.632919942    -8.594135660
 H        1.512838012    13.413925881    -8.789041167
 H        0.129206422    18.155134727    -5.100380080
 H        1.777605162    18.743534957    -5.267825996
 H        1.354289331    17.754438460    -3.879256782
 H        3.484753353    15.507117726    -6.084108540
 H        3.262468582    16.072571858    -4.418947859
 H        3.699736307    17.206188735    -5.689627692
 H       -6.437989642    12.325824198     2.149336294
 H       -5.669517767    12.674193912     3.691970065
 H       -5.262827814    11.191890268     2.839256774
 H       -2.219608889    13.485555552     2.501457254
 H       -2.744935545    11.885249387     3.049234097
 H       -3.284633613    13.330754506     3.889762981
 H       -2.012165773    11.944082098    -2.003000986
 H       -1.638694406    13.580644875    -2.509197453
 H       -3.277931108    12.970434165    -2.710161248
 H       -3.349715709    15.490366344     0.194947878
 H       -4.068259181    15.130026877    -1.388286211
 H       -2.375147331    15.574628186    -1.269350464
 H       -0.642981135     0.864056999    -2.877268666
 H       -0.762031910    -0.682592249    -3.705313979
 H        0.787578359    -0.167508087    -3.052037771
 H       -0.473009091    -2.975132346    -0.769344312
 H        0.900077001    -2.465243059    -1.769222750
 H       -0.643957938    -2.852253681    -2.513982258
 H        0.895052599    -0.115089452     2.954962638
 H       -0.517498193    -0.827734052     3.719188255
 H       -0.645672290     0.762580448     2.978755393
 H       -2.517405546    -1.697851201     0.709863898
 H       -2.699995702    -0.187243626     1.625543586
 H       -2.426208747    -1.707617241     2.463899310

