187   

Si        0.000000000     0.000000000     0.000000000
 C        1.865195371     0.000000000     0.000000000
 C       -0.679996341     1.710494030     0.000000000
 C        0.115233580     2.803208167    -0.359580374
 C       -0.410608162     4.095113181    -0.355997272
 C       -1.742255823     4.323584207    -0.000058647
 C       -2.539263553     3.226894131     0.355037837
 C       -2.017062529     1.936535089     0.353757930
 C       -2.336024835     5.656191617     0.018369914
 C       -1.686549229     6.789619746    -0.297120658
 C       -2.284623205     8.120538752    -0.277264781
 C       -1.493330107     9.221392973    -0.629722554
 C       -2.021848392    10.510184569    -0.625016820
 C       -3.353139026    10.729765778    -0.252739492
 C       -4.145245146     9.631181386     0.101629788
 C       -3.616927870     8.341617871     0.083862765
Si       -4.083992342    12.418130688    -0.235060206
 C       -5.319780946    12.607353864     1.098707778
 C       -5.275808312    11.944199769     2.262434259
 C       -6.262479431    12.092394265     3.332654812
 C       -6.105261252    11.340212992     4.506429454
 C       -7.009645301    11.442289874     5.549683811
 C       -8.093671287    12.345231971     5.470187043
 C       -8.252914738    13.099754678     4.291957131
 C       -7.359767904    12.952294732     3.238534699
 N       -8.996912282    12.431765385     6.538386161
 C       -8.457396669    12.310904591     7.902674878
 C      -10.120068074    13.368187714     6.405981641
 C       -7.252849671    13.214978847     8.224475459
 C       -7.610080587    14.689379422     8.482090799
 N       -8.384200428    14.972887993     9.707421685
 C       -9.789686827    14.838558565     9.573909874
 C      -10.436374142    15.700802227     8.665266080
 C      -11.807490478    15.622392194     8.486761458
 C      -12.580564819    14.714003058     9.226598570
 C      -11.938140103    13.883013428    10.147083840
 C      -10.561187382    13.947098496    10.333662013
 C       -7.793218941    14.396555823    10.924682270
 C      -14.026555081    14.672768545     8.998025612
 C      -14.865725740    13.850593288     9.641731639
Si      -16.672121540    13.796382006     9.358813330
 C      -17.344896062    15.428372877     8.844196781
 C      -16.750083543    16.608074434     9.310751108
 C      -17.250411229    17.849667951     8.928165232
 C      -18.363583974    17.944870419     8.082588452
 C      -18.960274823    16.766350454     7.626343277
 C      -18.459184104    15.521048102     8.004049573
 C      -18.850949398    19.268704996     7.709672784
 C      -19.902665113    19.498351764     6.905238006
 C      -20.390319888    20.821996458     6.532101048
 C      -19.794647970    22.000959128     6.987566840
 C      -20.293938741    23.246049335     6.605539106
 C      -21.406416239    23.338613591     5.763466755
 C      -22.006518788    22.157369161     5.306390617
 C      -21.502736898    20.916122150     5.684955856
Si      -22.078346204    24.973633676     5.249483898
 C      -21.337157563    26.365028895     6.246668994
 C      -21.693255709    25.271497273     3.409258821
 C      -23.968147033    24.935789168     5.475164350
 C      -17.032481055    12.489398142     8.024026291
 C      -17.516624754    13.268292313    10.978936898
 C       -2.721333811    13.725622746    -0.003589073
 C       -4.948316443    12.726188427    -1.901633570
 C       -0.618871719    -0.918347432    -1.548040454
 C       -0.653060956    -0.910010321     1.539632997
 H        1.163791005     2.687170114    -0.647143537
 H        0.230317012     4.928898626    -0.636506521
 H       -3.579513597     3.382647671     0.635046176
 H       -2.687046965     1.120864809     0.639837284
 H       -3.388411697     5.683237486     0.316774415
 H       -0.634825725     6.764204419    -0.596195813
 H       -0.453873006     9.071156176    -0.914244609
 H       -1.358462197    11.328703545    -0.916668616
 H       -5.193484600     9.743761301     0.400114440
 H       -4.254638059     7.503561477     0.359423897
 H       -6.117131391    13.334825569     0.885777857
 H       -4.484705593    11.219013192     2.502363943
 H       -5.263333910    10.652296038     4.596262502
 H       -6.885261108    10.819029317     6.430179217
 H       -9.073441690    13.802199245     4.190008941
 H       -7.514509836    13.536125778     2.330064894
 H      -10.791549904    13.278514564     7.280452353
 H      -10.718026585    13.095915654     5.516891594
 H       -9.812137584    14.423070809     6.322787952
 H       -6.735194730    14.705948004    10.988219774
 H       -7.839309692    13.297828052    10.979765580
 H       -8.307823398    14.815950625    11.807970053
 H       -9.851403499    16.434968370     8.114475215
 H      -12.294042259    16.289381514     7.773610973
 H      -12.518264272    13.171599515    10.736203398
 H      -10.092901498    13.289527395    11.059707525
 H      -14.365936197    15.395522652     8.242250070
 H      -14.498837681    13.128674671    10.387491336
 H      -15.882526367    16.595145806     9.979268599
 H      -16.771191184    18.755441719     9.295405512
 H      -19.826954619    16.811876330     6.969566097
 H      -18.969087759    14.635295194     7.615544721
 H      -18.287681878    20.101634207     8.140783496
 H      -20.466150257    18.665369073     6.474535331
 H      -18.930104949    21.956585681     7.647440807
 H      -19.784668126    24.132887738     6.993012361
 H      -22.879402948    22.168029859     4.647437530
 H      -21.981676331    20.010100112     5.318636800
 H       -9.280117046    12.495680693     8.630895624
 H       -8.165116063    11.242637763     8.047616058
 H       -6.712852900    12.798390455     9.095198408
 H       -6.523784549    13.174334438     7.387108822
 H       -6.667514185    15.283242968     8.561848655
 H       -8.156582289    15.098818503     7.603286598
 H        2.262956102    -1.029171119     0.053950381
 H        2.260595756     0.554832312     0.870314933
 H        2.275480543     0.467472384    -0.912141332
 H      -21.778282351    27.337103456     5.962211439
 H      -20.245666682    26.439022386     6.097540176
 H      -21.521666266    26.220871347     7.326730554
 H      -22.071138732    26.310682067     3.184249078
 C      -20.183257869    25.237340945     3.110011591
 C      -22.405509149    24.290869260     2.460644308
 H      -24.341478335    24.100711052     4.813624762
 C      -24.382162218    24.610233390     6.921679113
 C      -24.665779054    26.234565392     5.033699717
 H      -18.155400394    12.444600960     7.924442185
 C      -16.444807816    12.878047854     6.655439204
 C      -16.532635031    11.083415583     8.400614700
 H      -17.083370879    12.260880014    11.243823858
 C      -17.214642126    14.238326635    12.135282251
 C      -19.041020691    13.112027974    10.841895431
 H       -2.012705423    13.597209755    -0.871965103
 C       -3.254505006    15.169206054    -0.036283597
 C       -1.927273477    13.516804730     1.298542491
 H       -5.366217225    13.772585927    -1.847441393
 C       -3.988994481    12.655409887    -3.102448158
 C       -6.119237312    11.755641925    -2.138941646
 H       -0.133517672    -1.936341750    -1.514729096
 C       -2.144927219    -1.117936461    -1.573350569
 C       -0.189939254    -0.227721079    -2.855650089
 H       -1.777490072    -0.919497597     1.440177997
 C       -0.177656170    -2.370599815     1.637145169
 C       -0.302305352    -0.179880987     2.848782874
 H      -19.606605697    25.970492066     3.688596845
 H      -20.003676294    25.472332599     2.051047567
 H      -19.735472354    24.248568290     3.285690000
 H      -23.498594981    24.308224035     2.555413813
 H      -22.071000079    23.252143111     2.591301120
 H      -22.184880800    24.553228289     1.415516173
 H      -23.966443188    23.660775938     7.288514164
 H      -25.475151466    24.512304339     6.988039157
 H      -24.098192050    25.393836390     7.636580300
 H      -24.475411453    26.495479127     3.984603842
 H      -24.388514511    27.100433653     5.649496031
 H      -25.755977101    26.126171900     5.130092789
 H      -16.802452911    13.849305066     6.286277812
 H      -16.732298150    12.136338224     5.896909559
 H      -15.345474144    12.908973315     6.655455275
 H      -16.967079250    10.700835031     9.332885217
 H      -15.438739236    11.028795508     8.492015564
 H      -16.810229236    10.364181382     7.616306878
 H      -16.141345120    14.360429962    12.334743715
 H      -17.660832311    13.863969987    13.067618224
 H      -17.638229166    15.240245597    11.973786467
 H      -19.337305685    12.362004531    10.097562893
 H      -19.547383513    14.054400503    10.587758826
 H      -19.472777224    12.781949291    11.797985178
 H       -3.766214477    15.423623986    -0.973131794
 H       -2.420830087    15.879638708     0.060079094
 H       -3.942032737    15.389331150     0.792414686
 H       -1.464748421    12.522943299     1.374086896
 H       -2.540428934    13.663676420     2.199633030
 H       -1.106403851    14.244676843     1.361595693
 H       -3.172973106    13.387453083    -3.052349172
 H       -4.534829740    12.867661557    -4.033122431
 H       -3.538887081    11.660722331    -3.232463817
 H       -6.880953953    11.789026411    -1.347888129
 H       -5.793374813    10.710490115    -2.242020640
 H       -6.635735967    12.009436141    -3.075365291
 H       -2.523420540    -1.692007704    -0.718204027
 H       -2.434915898    -1.681071720    -2.472426912
 H       -2.699169500    -0.169549842    -1.615330298
 H        0.897545050    -0.118089229    -2.955147082
 H       -0.638018193     0.768847283    -2.978777196
 H       -0.518853650    -0.821404474    -3.720603452
 H       -0.452532892    -2.976727846     0.764313504
 H       -0.640473232    -2.858289138     2.507450363
 H        0.907765844    -2.459193891     1.777578015
 H       -0.661332199     0.858973567     2.875776880
 H        0.776116823    -0.162099656     3.054795721
 H       -0.771942231    -0.689362021     3.702192202

