187   

Si        0.000000000     0.000000000     0.000000000
 C        1.865617359     0.000000000     0.000000000
 C       -0.684145123     1.708468858     0.000000000
 C        0.145237373     2.824018218     0.150609474
 C       -0.390508563     4.112058101     0.148253862
 C       -1.765544722     4.313673083     0.005009568
 C       -2.595738584     3.194343929    -0.144259501
 C       -2.063424524     1.908353633    -0.149914058
 C       -2.371594180     5.640799326    -0.003398002
 C       -1.694077026     6.794546340     0.122565065
 C       -2.305347920     8.119588904     0.113487622
 C       -3.682671454     8.311149298    -0.030454165
 C       -4.226572349     9.594302836    -0.033928129
 C       -3.403677249    10.716878816     0.116035850
 C       -2.023983879    10.527671531     0.258776548
 C       -1.482276818     9.244515130     0.251385545
Si       -4.136221002    12.402452120     0.109344053
 C       -3.093031611    13.668225852     0.917957128
 C       -2.245574550    13.429753804     1.927771752
 C       -1.416640589    14.455286100     2.564811154
 C       -0.566370941    14.080530147     3.615725832
 C        0.237798468    15.012868769     4.251161785
 C        0.184358496    16.369449763     3.873481331
 C       -0.656837317    16.746603297     2.816035421
 C       -1.422125258    15.791242805     2.156559001
 N        1.028031991    17.283742008     4.555230839
 C        0.882474562    17.307030631     6.025162315
 C        1.114179769    18.634796623     3.974320572
 C       -0.461975447    17.860184005     6.535641090
 C       -1.444004439    16.734478541     6.918035395
 N       -2.873058068    17.118156146     6.859237755
 C       -3.319253168    17.256208850     5.503324586
 C       -3.666241367    16.063864424     4.846388387
 C       -4.107712346    16.104912847     3.534051989
 C       -4.233810194    17.327013967     2.854543290
 C       -3.902420114    18.507396673     3.522327897
 C       -3.453804924    18.479992020     4.840053613
 C       -3.200430689    18.260530213     7.730330300
 C       -4.705507860    17.308999899     1.467927780
 C       -4.868244314    18.403283655     0.712536008
Si       -5.458982661    18.353680409    -1.017207765
 C       -6.581471094    16.921709252    -1.281453685
 C       -7.648254741    16.712057995    -0.396294970
 C       -8.512110226    15.635068994    -0.574940228
 C       -8.340461411    14.748903716    -1.647321557
 C       -7.281928452    14.966495953    -2.532496101
 C       -6.412948710    16.042535989    -2.354547096
 C       -9.268143704    13.633478163    -1.797739902
 C       -9.203303804    12.719511222    -2.780701196
 C      -10.125569035    11.600940361    -2.939914913
 C      -11.188721476    11.369731967    -2.063563743
 C      -12.046728043    10.286770908    -2.254076648
 C      -11.859872998     9.411644975    -3.328601326
 C      -10.792794826     9.640674604    -4.208033890
 C       -9.935965849    10.720237406    -4.013346375
Si      -12.982695002     7.977354513    -3.595075684
 C      -14.510793942     8.092879429    -2.531851252
 C      -13.462884016     7.930710964    -5.436226565
 C      -12.062118998     6.366994409    -3.166974177
 C       -6.367108652    19.969781904    -1.426958079
 C       -3.923716061    18.205475013    -2.135965088
 C       -4.473868113    12.952754415    -1.676877095
 C       -5.796724651    12.346910066     1.043960448
 C       -0.662253968    -0.895442331    -1.543523276
 C       -0.594327473    -0.934577450     1.548782327
 H        1.227952648     2.729193056     0.270435625
 H        0.277300104     4.964035547     0.262157535
 H       -3.669541524     3.329433153    -0.259111698
 H       -2.759759361     1.074505468    -0.276525150
 H       -3.459057899     5.645278558    -0.123545752
 H       -0.606883109     6.792214881     0.242636720
 H       -4.344415021     7.454393873    -0.142965798
 H       -5.310796701     9.680214541    -0.155875374
 H       -1.331810798    11.369193843     0.368382080
 H       -0.406567085     9.117909644     0.357828162
 H       -3.219737889    14.684249154     0.508654130
 H       -2.107138954    12.431215000     2.364551869
 H       -0.530266390    13.038908067     3.935860125
 H        0.917778564    14.698195336     5.038499363
 H       -0.731470672    17.784197576     2.505303182
 H       -2.059712308    16.108804046     1.328362656
 H        1.909282372    19.198311633     4.491881625
 H        0.180530963    19.216101044     4.034864056
 H        1.413339383    18.553820648     2.913682883
 H       -2.993211087    17.970431676     8.775011657
 H       -4.281695774    18.471179165     7.655085560
 H       -2.648458770    19.185888715     7.510866924
 H       -3.576620653    15.115435272     5.374893995
 H       -4.353014368    15.169006194     3.024914441
 H       -3.994459372    19.467028868     3.014769391
 H       -3.204381715    19.409495982     5.341788607
 H       -4.935759918    16.296067585     1.103461623
 H       -4.631042487    19.406763204     1.094412345
 H       -7.827462543    17.369447281     0.461098087
 H       -9.331494871    15.483842940     0.125156659
 H       -7.125842457    14.294109358    -3.374611208
 H       -5.607971337    16.161894058    -3.085371610
 H      -10.050641586    13.579874901    -1.035822402
 H       -8.419601751    12.776254593    -3.542605056
 H      -11.357489750    12.037607146    -1.220734323
 H      -12.861973697    10.157815282    -1.536713306
 H      -10.598545297     8.990002622    -5.065503726
 H       -9.112043963    10.880745126    -4.706366786
 H        1.054810579    16.277570691     6.410829375
 H        1.721187328    17.920220020     6.428212656
 H       -0.291702784    18.520535247     7.403664719
 H       -0.920975040    18.502748082     5.758408619
 H       -1.303640244    15.857772194     6.241457131
 H       -1.238366869    16.374416623     7.949229713
 H        2.263161580    -1.030398245    -0.021277545
 H        2.273558765     0.495646915     0.898453792
 H        2.263295346     0.526648539    -0.886404560
 H      -15.194296761     7.246537345    -2.724139326
 H      -15.069395252     9.023530179    -2.739914365
 H      -14.262613918     8.081591341    -1.456025024
 H      -12.494543986     7.817570072    -6.005514865
 C      -14.367883317     6.741875047    -5.804863172
 C      -14.133184354     9.235437023    -5.903365968
 H      -12.823107960     5.541834124    -3.282802166
 C      -10.881378165     6.060609148    -4.105357013
 C      -11.554515467     6.346975880    -1.713337351
 H       -5.615827494    20.796693247    -1.266356850
 C       -6.843545913    20.035036626    -2.888686581
 C       -7.566282937    20.233137852    -0.498835102
 H       -4.314125763    18.095913795    -3.188291462
 C       -3.021824296    19.452221201    -2.093722691
 C       -3.068470311    16.968760037    -1.804499150
 H       -4.986326461    13.957995787    -1.599450023
 C       -3.179887912    13.135435453    -2.489252808
 C       -5.413657549    12.000180635    -2.436057325
 H       -6.490443200    11.730368444     0.402534370
 C       -5.677101112    11.664353806     2.418272150
 C       -6.430325178    13.733106425     1.235702826
 H       -1.787037788    -0.883629192    -1.447217456
 C       -0.294976743    -0.168253510    -2.849757432
 C       -0.212197382    -2.363770425    -1.643069209
 H       -0.068489445    -1.932723493     1.518221296
 C       -0.193389850    -0.223424741     2.854417057
 C       -2.110218851    -1.198665829     1.578121984
 H      -13.924564427     5.766723285    -5.565076691
 H      -14.555696837     6.735442793    -6.888523573
 H      -15.353783378     6.788554181    -5.323575751
 H      -13.518177231    10.128529682    -5.721866099
 H      -15.111674328     9.407040085    -5.435519724
 H      -14.310768427     9.200746124    -6.987769876
 H      -11.173373363     5.973466090    -5.159567668
 H      -10.426434320     5.096815772    -3.833386909
 H      -10.077362782     6.806925818    -4.037627102
 H      -12.352408247     6.475251825    -0.970561450
 H      -10.790859356     7.113242069    -1.516902818
 H      -11.082497001     5.378812888    -1.492517182
 H       -6.028432738    19.945324367    -3.618289681
 H       -7.325498948    21.003907420    -3.084890404
 H       -7.592602838    19.267245926    -3.129983898
 H       -7.302010595    20.236888058     0.567364604
 H       -8.381401983    19.509093143    -0.639424083
 H       -7.997041766    21.221983393    -0.712446783
 H       -3.532940902    20.372249750    -2.403647716
 H       -2.176307337    19.327534491    -2.785806309
 H       -2.582240825    19.629544643    -1.102168250
 H       -3.625674399    16.021902745    -1.846734119
 H       -2.597935574    17.032004080    -0.812121264
 H       -2.247178638    16.873535884    -2.528646449
 H       -2.470752779    13.838872546    -2.031559694
 H       -3.412312452    13.533109406    -3.486923629
 H       -2.644336855    12.189854937    -2.654779815
 H       -6.416547758    11.937473112    -1.990212397
 H       -5.019260059    10.977626374    -2.518009195
 H       -5.556995706    12.353209150    -3.467003183
 H       -5.304505421    10.632594673     2.362173213
 H       -6.664922075    11.608377241     2.896823024
 H       -5.026648818    12.213078453     3.114352152
 H       -6.521453803    14.307344986     0.301986909
 H       -5.886549105    14.355552112     1.959695383
 H       -7.452563416    13.629589354     1.626310917
 H       -0.637153072     0.876360399    -2.875285641
 H       -0.770738328    -0.667469818    -3.705825924
 H        0.784095932    -0.168068652    -3.052625173
 H       -0.504470816    -2.968081885    -0.774608688
 H        0.872549135    -2.471112983    -1.775435544
 H       -0.676676665    -2.839913317    -2.518822486
 H        0.889123195    -0.072144462     2.954763382
 H       -0.501051129    -0.825516077     3.721293487
 H       -0.677923902     0.756551839     2.972857246
 H       -2.473119339    -1.758572455     0.707098633
 H       -2.701869801    -0.276062666     1.658210464
 H       -2.367984132    -1.803546495     2.459822295

