187   

Si        0.000000000     0.000000000     0.000000000
 C        1.865177001     0.000000000     0.000000000
 C       -0.679945145     1.710732487     0.000000000
 C        0.110440211     2.801218286     0.376816539
 C       -0.415095810     4.093278319     0.373122975
 C       -1.741724970     4.323886543     0.000152275
 C       -2.533887802     3.229509554    -0.372165655
 C       -2.011895820     1.939080458    -0.371087195
 C       -2.335257637     5.656634039    -0.019194545
 C       -1.690332342     6.788381173     0.311354127
 C       -2.287799276     8.119563615     0.290631400
 C       -3.615707361     8.342439836    -0.083653190
 C       -4.147742877     9.631405105    -0.089680882
 C       -3.365196124    10.725182315     0.293314957
 C       -2.034122742    10.504606404     0.671662432
 C       -1.502484747     9.217923284     0.665477647
Si       -4.042524095    12.433390708     0.294055975
 C       -3.327642604    13.462612326     1.624538376
 C       -2.904365357    12.974334467     2.798257618
 C       -2.330628092    13.786888727     3.870786103
 C       -1.925003146    13.153368501     5.053784482
 C       -1.375469458    13.874155529     6.101280908
 C       -1.247653733    15.277588564     6.013855694
 C       -1.640953916    15.910768998     4.820578019
 C       -2.141302416    15.166699626     3.760128440
 N       -0.686435506    15.995223287     7.088574878
 C       -0.977710520    15.486278715     8.445526684
 C       -0.740567863    17.464117355     6.994353206
 C       -2.459356703    15.188592135     8.743141441
 C       -3.257084923    16.427574302     9.195494410
 N       -4.611740009    16.539416895     8.605708042
 C       -4.564258828    16.889859915     7.218207489
 C       -4.284667682    18.237333560     6.930447402
 C       -4.219803604    18.663516851     5.613508641
 C       -4.427395343    17.765527191     4.555520297
 C       -4.724949183    16.432985667     4.851505256
 C       -4.815374416    15.997245815     6.170564470
 C       -5.470680959    15.384774404     8.921848428
 C       -4.345410489    18.278119563     3.186102514
 C       -4.520684134    17.538479470     2.082923706
Si       -4.406540618    18.233028125     0.392575833
 C       -4.909500824    20.001246592     0.344898359
 C       -5.910558057    20.460009190     1.209403966
 C       -6.307081797    21.795907946     1.190037778
 C       -5.722798927    22.701165744     0.299302223
 C       -4.727467857    22.238404339    -0.571051390
 C       -4.326610857    20.904504841    -0.551240012
 C       -6.105944522    24.108032150     0.243469838
 C       -7.043244801    24.676417167     1.020896824
 C       -7.427457611    26.083011956     0.966241894
 C       -6.842318590    26.990401095     0.079386045
 C       -7.240259327    28.327186106     0.060972707
 C       -8.230117946    28.786863402     0.935222092
 C       -8.818576044    27.878553730     1.825738680
 C       -8.423352060    26.543873363     1.837909338
Si       -8.766497527    30.547811620     0.923531317
 C       -7.593909839    31.615634735    -0.058776424
 C      -10.501986980    30.676617797     0.152346542
 C       -8.857678183    31.155759630     2.725089650
 C       -2.594118836    18.097661298    -0.181104258
 C       -5.501890801    17.198939519    -0.762179781
 C       -3.672681922    13.259856551    -1.377974884
 C       -5.929026295    12.391003648     0.552152244
 C       -0.650654949    -0.910318738    -1.540484105
 C       -0.620918433    -0.918279587     1.547164494
 H        1.155169163     2.683490826     0.677493208
 H        0.221874828     4.925558299     0.667163128
 H       -3.569897879     3.387101861    -0.666048433
 H       -2.677995558     1.125129248    -0.670659140
 H       -3.383178940     5.685089426    -0.332343587
 H       -0.642489995     6.761310156     0.624303371
 H       -4.247822203     7.506863117    -0.378215103
 H       -5.190656444     9.742894354    -0.398344974
 H       -1.375687087    11.324266477     0.979845611
 H       -0.465375824     9.066180997     0.959110921
 H       -3.284160091    14.539673230     1.402408728
 H       -2.947982156    11.904015798     3.045795630
 H       -2.036620524    12.072936325     5.153212085
 H       -1.036580009    13.349637210     6.989561580
 H       -1.562826906    16.988602552     4.707898912
 H       -2.415977813    15.686345482     2.839217523
 H       -0.273220725    17.917245073     7.883220622
 H       -1.766119836    17.861769900     6.894061368
 H       -0.147309561    17.790281235     6.120135632
 H       -5.584523598    15.325355330    10.018184909
 H       -5.096619324    14.415291029     8.559418742
 H       -6.475030090    15.555499869     8.495734437
 H       -4.137303798    18.938441889     7.749788247
 H       -4.009824040    19.711978130     5.400326802
 H       -4.893051429    15.715605426     4.045685030
 H       -5.051323768    14.956150044     6.373603340
 H       -4.125282301    19.355545247     3.147716249
 H       -4.735760479    16.460361430     2.139521186
 H       -6.408920349    19.796119415     1.924475605
 H       -7.083504733    22.129141081     1.876544851
 H       -4.260631173    22.926271321    -1.273482596
 H       -3.546919101    20.602677851    -1.255677540
 H       -5.564517358    24.700593871    -0.499729423
 H       -7.585207441    24.082841519     1.763238788
 H       -6.067273933    26.658789053    -0.609096236
 H       -6.746364987    28.989230407    -0.655682475
 H       -9.597059752    28.181104730     2.531977904
 H       -8.893461926    25.852910777     2.535178317
 H       -0.379481411    14.551491833     8.572612408
 H       -0.570042262    16.201879620     9.192388019
 H       -2.936169285    14.748611146     7.841528164
 H       -2.524645473    14.399623758     9.514123676
 H       -3.380848915    16.422282073    10.301213134
 H       -2.703081364    17.360949222     8.951934108
 H        2.262990127    -1.029505260    -0.046547635
 H        2.275912232     0.474275699     0.908425710
 H        2.260086201     0.548537427    -0.874565861
 H       -7.898974323    32.676837084    -0.025173886
 H       -7.557331145    31.313990945    -1.120220743
 H       -6.567418934    31.552884296     0.345875601
 H      -10.740728783    31.779025516     0.122407914
 C      -10.547621242    30.139063901    -1.289714690
 C      -11.597381827    29.974686687     0.974672103
 H       -9.614331668    30.492685238     3.237109005
 C       -7.518102026    31.000792168     3.467638755
 C       -9.340053554    32.611056996     2.858451036
 H       -2.567289040    18.552054483    -1.213473073
 C       -1.643124462    18.902976291     0.722854534
 C       -2.072840736    16.655955151    -0.287924208
 H       -5.163386476    16.128613839    -0.633459606
 C       -6.990267027    17.276831174    -0.378172053
 C       -5.346168028    17.570295587    -2.246502111
 H       -4.050207379    14.320744185    -1.293733144
 C       -2.164792419    13.307608111    -1.682180133
 C       -4.399295972    12.593355126    -2.558726292
 H       -6.346791892    11.773506357    -0.293869472
 C       -6.315278897    11.711275846     1.878318579
 C       -6.586083630    13.780926470     0.495948620
 H       -1.775308216    -0.918691500    -1.443859535
 C       -0.295938475    -0.181533118    -2.849224840
 C       -0.176600889    -2.371451222    -1.635875299
 H       -0.139049771    -1.937849931     1.512469092
 C       -0.189939712    -0.230630288     2.855545843
 C       -2.147601867    -1.113189926     1.571849332
 H       -9.851148114    30.648447008    -1.968042369
 H      -11.551267731    30.284720089    -1.714423291
 H      -10.342018519    29.060557342    -1.350254616
 H      -11.688492567    30.359382991     1.998306070
 H      -11.455272480    28.886368534     1.033703038
 H      -12.578270971    30.128861434     0.501561187
 H       -7.136920805    29.969527445     3.463962422
 H       -7.638143744    31.279621535     4.524264188
 H       -6.726765385    31.647213471     3.065559079
 H      -10.329422239    32.783552871     2.415412801
 H       -8.644108148    33.335626625     2.415261576
 H       -9.428332751    32.881081809     3.920963716
 H       -1.905956971    19.967010099     0.797218027
 H       -0.620706961    18.868708966     0.321145787
 H       -1.586040855    18.504368381     1.746497225
 H       -2.664135892    16.028955895    -0.968563380
 H       -2.018439137    16.146276648     0.684501197
 H       -1.048078673    16.655534214    -0.687132939
 H       -7.192639042    16.954540780     0.652676403
 H       -7.584145379    16.620083092    -1.029610268
 H       -7.411573006    18.285097295    -0.498505351
 H       -4.322779902    17.443863084    -2.622625657
 H       -5.658166198    18.600943600    -2.466483081
 H       -5.982230699    16.921320201    -2.865985449
 H       -1.575828210    13.810141324    -0.902138937
 H       -1.984184341    13.861605285    -2.614121106
 H       -1.728707309    12.309239920    -1.831597870
 H       -5.492558126    12.612611194    -2.464458599
 H       -4.095745907    11.548566561    -2.715419736
 H       -4.162811276    13.122318124    -3.493441424
 H       -5.934915536    10.684662575     1.970355321
 H       -7.408545307    11.640313225     1.962847178
 H       -5.971785365    12.270851790     2.761028924
 H       -6.440253105    14.291483329    -0.465305368
 H       -6.236492489    14.453675405     1.292405757
 H       -7.673487421    13.688008177     0.628906345
 H       -0.653194513     0.857886703    -2.877845271
 H       -0.764285410    -0.690688443    -3.703540036
 H        0.782982141    -0.165530493    -3.052948960
 H       -0.459395912    -2.978193505    -0.765993485
 H        0.909710869    -2.461911013    -1.768023931
 H       -0.633269383    -2.857396238    -2.510424546
 H        0.897980237    -0.125958579     2.955958180
 H       -0.522174244    -0.823657621     3.719736739
 H       -0.633646895     0.767799386     2.979305916
 H       -2.527803893    -1.683853053     0.715175291
 H       -2.698937035    -0.163218034     1.615985645
 H       -2.439574120    -1.677808378     2.469348322

