187   

Si        0.000000000     0.000000000     0.000000000
 C        1.865259104     0.000000000     0.000000000
 C       -0.681128553     1.710093831     0.000000000
 C        0.128719607     2.812367295     0.290788369
 C       -0.401073422     4.102730427     0.287099558
 C       -1.751193005     4.319834249     0.000468110
 C       -2.562458800     3.213794696    -0.286909073
 C       -2.036024582     1.925237708    -0.287256713
 C       -2.349807694     5.650369591    -0.015204344
 C       -1.687618938     6.791989257     0.238040773
 C       -2.289410986     8.121233163     0.221531070
 C       -3.640626761     8.332125506    -0.065909701
 C       -4.175950564     9.620035136    -0.071074449
 C       -3.371339186    10.724174240     0.224301986
 C       -2.015828123    10.516142377     0.514600024
 C       -1.482554921     9.230577809     0.508142630
Si       -4.045162600    12.434956035     0.226284207
 C       -3.242319603    13.460436375     1.510533488
 C       -2.762999360    12.967622221     2.660717835
 C       -2.117905216    13.772003135     3.699430696
 C       -1.659472956    13.129283177     4.858960879
 C       -1.041849285    13.841701129     5.873466550
 C       -0.810094241    15.225181063     5.729819438
 C       -1.270552800    15.871621255     4.571646528
 C       -1.942076212    15.153504207     3.588765990
 N       -0.175707282    15.912508210     6.792730496
 C        1.087910827    15.318996997     7.277272107
 C       -0.095000468    17.377598083     6.660595911
 C        2.250147737    15.353009839     6.266008128
 C        2.440363076    13.999940543     5.549869792
 N        3.089590749    14.091952348     4.221932263
 C        2.223152354    14.709398340     3.261258881
 C        1.229353794    13.886889528     2.704926402
 C        0.350327897    14.406487280     1.768366995
 C        0.459464819    15.738463730     1.339848758
 C        1.463395352    16.541727035     1.884179987
 C        2.344310698    16.036412113     2.835985567
 C        4.445798661    14.665119195     4.284930522
 C       -0.497462662    16.234725937     0.347356973
 C       -0.491806542    17.483355061    -0.135036610
Si       -1.653783632    18.163407866    -1.370414274
 C       -2.328196500    19.754774866    -0.742007060
 C       -2.384225836    19.990284378     0.636314285
 C       -2.892823849    21.191711691     1.127195952
 C       -3.368760465    22.175107844     0.255283952
 C       -3.318350433    21.932434529    -1.123818065
 C       -2.804780468    20.736137101    -1.618589179
 C       -3.909474224    23.446792600     0.724173069
 C       -4.013950707    23.804101381     2.015439082
 C       -4.554568634    25.075601813     2.484686852
 C       -5.024546971    26.062126192     1.614038737
 C       -5.533569722    27.263983652     2.106075190
 C       -5.589632409    27.502331335     3.482843713
 C       -5.119571352    26.513852148     4.358260407
 C       -4.606843584    25.317807545     3.864081803
Si       -6.258625934    29.083351463     4.147664035
 C       -7.174610853    30.045000931     2.837816503
 C       -7.422363009    28.676818555     5.598263418
 C       -4.825445711    30.151178985     4.802695847
 C       -0.749032071    18.394287060    -3.022126503
 C       -3.127516714    16.984530323    -1.617314609
 C       -3.672672412    13.217681377    -1.468945700
 C       -5.923219371    12.439294764     0.508386873
 C       -0.654854565    -0.903853528    -1.542244830
 C       -0.612956989    -0.924301831     1.546991918
 H        1.191814490     2.705119967     0.523263244
 H        0.251546323     4.944212229     0.512646966
 H       -3.616804092     3.360980458    -0.513247385
 H       -2.717155553     1.101972799    -0.520581684
 H       -3.416985442     5.668326313    -0.255687319
 H       -0.620580025     6.775388655     0.478293682
 H       -4.289369149     7.487874147    -0.291765756
 H       -5.238270154     9.721795039    -0.308561409
 H       -1.338744897    11.344640475     0.751383036
 H       -0.426746870     9.087734112     0.731932919
 H       -3.199823906    14.537132133     1.285409688
 H       -2.808813323    11.897826637     2.912188215
 H       -1.802542801    12.054073092     4.973087495
 H       -0.738817847    13.333665974     6.785180361
 H       -1.103510596    16.933962636     4.421382290
 H       -2.304297243    15.683083004     2.705006847
 H        0.298100090    17.804824989     7.598883152
 H       -1.113128564    17.784913240     6.523422103
 H        0.540106355    17.721962084     5.828809839
 H        5.076139905    13.997735020     4.897903117
 H        4.501779281    15.679368894     4.706229309
 H        4.876724064    14.682417117     3.268398567
 H        1.152744250    12.848137385     3.024050932
 H       -0.432789580    13.764851186     1.357530494
 H        1.566891317    17.579584219     1.566770314
 H        3.116424252    16.679397876     3.247003804
 H       -1.232612377    15.478621413     0.038627421
 H        0.265732320    18.215494537     0.192654815
 H       -2.030588619    19.254069449     1.366595400
 H       -2.920011008    21.356556461     2.202762153
 H       -3.683815623    22.685606963    -1.819264361
 H       -2.787817294    20.602589226    -2.703518019
 H       -4.239840193    24.123597343    -0.069251284
 H       -3.684182449    23.126705170     2.808613004
 H       -4.996214873    25.899722814     0.538118438
 H       -5.885613233    27.997765839     1.375722403
 H       -5.139268992    26.644327965     5.443962280
 H       -4.245528303    24.562633309     4.559517485
 H        1.375876811    15.867145594     8.203761403
 H        0.882850163    14.275100198     7.603918752
 H        2.066960499    16.146363404     5.514059811
 H        3.185378055    15.640763523     6.777044247
 H        3.051270825    13.313330885     6.174675767
 H        1.452694960    13.501429127     5.403619920
 H        2.263029733    -1.029786460    -0.040713595
 H        2.275191893     0.479054914     0.906351683
 H        2.261076183     0.543330348    -0.877323906
 H       -7.607479130    30.972091167     3.254369163
 H       -8.006411084    29.449843608     2.419075192
 H       -6.512474123    30.333406195     2.002759379
 H       -6.786087279    28.148463687     6.366631096
 C       -8.029388551    29.923378775     6.266314967
 C       -8.559107777    27.721839893     5.191536003
 H       -5.296286559    31.119428416     5.140384968
 C       -4.094815184    29.531377171     6.007312740
 C       -3.788689497    30.479093971     3.712539073
 H       -1.515569678    18.797631135    -3.745649203
 C        0.398896441    19.415233963    -2.929671353
 C       -0.203770234    17.073429395    -3.594528024
 H       -2.682704477    15.960503250    -1.788985346
 C       -4.026712875    16.924702779    -0.368671065
 C       -3.997178030    17.332432476    -2.837289282
 H       -4.018188897    14.290688716    -1.397562526
 C       -2.169186372    13.217191935    -1.798686190
 C       -4.435662830    12.550035492    -2.625339832
 H       -6.366261386    11.811781603    -0.318074935
 C       -6.313071773    11.802131696     1.853990832
 C       -6.546233525    13.844454344     0.421127562
 H       -1.779409640    -0.909188945    -1.443541032
 C       -0.300687444    -0.171469958    -2.849137913
 C       -0.184547488    -2.365809102    -1.643174859
 H       -0.119315616    -1.938360847     1.511518690
 C       -0.188280984    -0.231931086     2.855084186
 C       -2.137024024    -1.137651686     1.574643562
 H       -7.274945349    30.623328798     6.648125150
 H       -8.638235700    29.625652544     7.132475727
 H       -8.698583955    30.483429564     5.599777117
 H       -8.198667848    26.778981926     4.755664511
 H       -9.261005753    28.169702921     4.475659315
 H       -9.152792907    27.444401508     6.074227566
 H       -4.751609053    29.343382422     6.866021557
 H       -3.312439846    30.216856758     6.364747895
 H       -3.585237929    28.589738606     5.758859831
 H       -4.215978296    30.999656717     2.845874206
 H       -3.264640921    29.587217498     3.339768439
 H       -3.012941751    31.144313061     4.118302022
 H        0.078333403    20.400614668    -2.563514415
 H        0.833330977    19.585003136    -3.925267665
 H        1.223872696    19.074940183    -2.288512012
 H       -0.981715957    16.317805672    -3.764643021
 H        0.569676251    16.618565183    -2.958771977
 H        0.268868168    17.253154190    -4.570756303
 H       -3.493132089    16.614613309     0.540574827
 H       -4.839730849    16.199733009    -0.518401177
 H       -4.516979932    17.884666555    -0.149297242
 H       -3.448064208    17.303765871    -3.786906755
 H       -4.475692462    18.318298368    -2.756661653
 H       -4.815143603    16.603575711    -2.935657223
 H       -1.550033751    13.709212534    -1.035496140
 H       -1.988519789    13.756593799    -2.739588113
 H       -1.766484159    12.204432964    -1.945813302
 H       -5.526320327    12.596953308    -2.513796716
 H       -4.160703548    11.495500878    -2.769188501
 H       -4.202910181    13.057474903    -3.572883513
 H       -5.953459183    10.770461914     1.970465957
 H       -7.407175503    11.758376685     1.949187795
 H       -5.951329562    12.376847681     2.719332471
 H       -6.389892690    14.330024711    -0.550690230
 H       -6.179641380    14.524276505     1.203375102
 H       -7.635535151    13.780921968     0.558508010
 H       -0.656071245     0.868717813    -2.873532738
 H       -0.771813603    -0.676670701    -3.704279904
 H        0.777855226    -0.157117550    -3.054734118
 H       -0.465815053    -2.974234075    -0.773972555
 H        0.901142783    -2.458156648    -1.779098250
 H       -0.645151321    -2.848319710    -2.517544793
 H        0.898433507    -0.113765810     2.953801507
 H       -0.511843944    -0.829268785     3.719563332
 H       -0.643801349     0.761034171     2.979828845
 H       -2.513893465    -1.702890585     0.712957496
 H       -2.698943290    -0.194753628     1.632421901
 H       -2.418727667    -1.715989017     2.466725730

