187   

Si        0.000000000     0.000000000     0.000000000
 C        1.865257307     0.000000000     0.000000000
 C       -0.677458984     1.711498017     0.000000000
 C        0.121030132     2.802531607    -0.357776660
 C       -0.401612709     4.095620419    -0.354635528
 C       -1.733099550     4.327435973     0.000231126
 C       -2.533163147     3.232609375     0.353944632
 C       -2.014265160     1.940767291     0.352416603
 C       -2.322657307     5.662052490     0.017822323
 C       -1.667606682     6.792222963    -0.297685131
 C       -2.257015076     8.126990255    -0.280153765
 C       -3.589395204     8.357364421     0.075131838
 C       -4.112172827     9.649586045     0.078409770
 C       -3.308966142    10.741481004    -0.268909445
 C       -1.974373519    10.514646814    -0.626099553
 C       -1.457490755     9.221318307    -0.634559902
Si       -3.997275598    12.447718738    -0.265132854
 C       -2.636688464    13.667008521    -0.251961793
 C       -2.513616707    14.713994600    -1.078341518
 C       -1.405602751    15.669177821    -1.034251673
 C       -1.385724079    16.728004860    -1.953794872
 C       -0.360706735    17.658954289    -1.954810381
 C        0.671643549    17.586632987    -0.992383448
 C        0.652617234    16.522921614    -0.068665040
 C       -0.360188546    15.574187457    -0.111509861
 N        1.700039378    18.536175032    -1.008212001
 C        1.365155372    19.912155209    -1.406794656
 C        2.744705808    18.430687118     0.017707989
 C        0.185160900    20.553827966    -0.653106862
 C        0.514707605    21.026233181     0.773986484
 N        1.450340236    22.163435641     0.892442828
 C        2.823882284    21.805670117     0.884013577
 C        3.287271546    21.013958304     1.954017013
 C        4.616337298    20.628054843     2.009371133
 C        5.528570601    21.040341882     1.025744773
 C        5.069396582    21.849328787    -0.016283954
 C        3.737219845    22.243154063    -0.085828931
 C        1.082048522    23.320270533     0.062198471
 C        6.923122927    20.603937635     1.131329172
 C        7.877828250    20.935263726     0.253010945
Si        9.631654293    20.423992200     0.329127491
 C       10.129247007    19.740382439    -1.303881556
 C        9.164485029    19.173588171    -2.143956859
 C        9.526812249    18.651403522    -3.384724653
 C       10.859117643    18.672019493    -3.807026637
 C       11.823834580    19.233389463    -2.959796883
 C       11.465179579    19.760714487    -1.721724204
 C       11.282978411    18.136974472    -5.096764624
 C       10.460519766    17.574147792    -5.998160141
 C       10.882174056    17.038545959    -7.288289892
 C       12.211903605    17.061655844    -7.716508179
 C       12.570431120    16.537981891    -8.958616069
 C       11.605284956    15.972612769    -9.797659829
 C       10.270788448    15.947356675    -9.369988161
 C        9.915153583    16.475984901    -8.132319174
Si       12.061450214    15.277109865   -11.439905281
 C       13.909027780    15.091247285   -11.617737751
 C       11.209392169    13.585278489   -11.627582068
 C       11.428078193    16.428904113   -12.816564698
 C       10.690583136    21.947964753     0.745613722
 C        9.912076391    19.100388844     1.664657354
 C       -5.107539655    12.677126034    -1.792249081
 C       -5.051252598    12.692648644     1.300410190
 C       -0.618837693    -0.917899159    -1.548226258
 C       -0.653731584    -0.909599230     1.539457151
 H        1.169786804     2.684126095    -0.643982691
 H        0.242032323     4.927829985    -0.634040524
 H       -3.573102591     3.390873931     0.633246025
 H       -2.686703428     1.126781334     0.637338331
 H       -3.374831194     5.693376156     0.315237519
 H       -0.615366528     6.760932213    -0.595627780
 H       -4.232035629     7.524230727     0.352863214
 H       -5.161023536     9.767746011     0.363988360
 H       -1.303276605    11.331914672    -0.910488757
 H       -0.418774672     9.062818110    -0.918499119
 H       -1.889237461    13.475567133     0.535981608
 H       -3.243784239    14.937024642    -1.867367867
 H       -2.183812632    16.815608497    -2.691642540
 H       -0.352448304    18.444368540    -2.704321179
 H        1.428333208    16.428731811     0.684076193
 H       -0.342518441    14.750956883     0.604894826
 H        3.517199210    19.205693598    -0.145033009
 H        3.251083160    17.452403859    -0.078442983
 H        2.367304174    18.540569452     1.047361509
 H        0.034972960    23.595242255     0.279043018
 H        1.182334868    23.157050219    -1.022011606
 H        1.710632987    24.182871085     0.348578139
 H        2.595098906    20.718233452     2.740202260
 H        4.959394556    20.008583290     2.838518792
 H        5.760667527    22.185641101    -0.790831747
 H        3.412859928    22.877161767    -0.905764620
 H        7.113753549    19.971101902     2.007571843
 H        7.654040587    21.580360647    -0.613822322
 H        8.106625663    19.124913035    -1.864511074
 H        8.757780602    18.221447338    -4.024101726
 H       12.866652540    19.258789646    -3.270037580
 H       12.259958850    20.186546514    -1.103436660
 H       12.354602062    18.223145393    -5.298332612
 H        9.388649537    17.487655793    -5.795828976
 H       12.983084396    17.492268937    -7.080416509
 H       13.626338349    16.585350627    -9.238904856
 H        9.473693565    15.517002372    -9.982941615
 H        8.873358917    16.448120305    -7.818113612
 H        2.275617790    20.546012996    -1.303024324
 H        1.138579743    19.894163896    -2.500352670
 H       -0.206492437    21.398187366    -1.250491851
 H       -0.654409626    19.828605108    -0.593629487
 H       -0.429966586    21.344277888     1.277881632
 H        0.906158374    20.170538452     1.368268236
 H        2.263197326    -1.029510547     0.045095337
 H        2.260665677     0.547409562     0.875028863
 H        2.275541517     0.475259244    -0.908134674
 H       14.171665401    14.637618526   -12.590148983
 H       14.319728061    14.438574376   -10.826034603
 H       14.426367122    16.064597030   -11.554727253
 H       10.101089033    13.787477185   -11.554379210
 C       11.476441528    12.910526131   -12.984712168
 C       11.584576334    12.608075961   -10.498846968
 H       11.791689577    15.975355877   -13.783787354
 C        9.893480600    16.525718722   -12.884101453
 C       12.007490582    17.851425984   -12.709198436
 H       11.756022411    21.580032376     0.802826275
 C       10.619784870    23.031702363    -0.344849791
 C       10.331302549    22.577170739     2.103111573
 H        9.498537586    19.530841038     2.622306579
 C        9.158327233    17.792516057     1.360838357
 C       11.398453716    18.772535825     1.891907988
 H       -5.405319234    13.765686606    -1.797087047
 C       -4.363685219    12.376975869    -3.106645457
 C       -6.393939084    11.833331750    -1.749732877
 H       -5.889051438    11.939967792     1.231995389
 C       -4.263232005    12.409027190     2.591719969
 C       -5.677147211    14.095412819     1.391240280
 H       -0.135014246    -1.936629974    -1.514199109
 C       -2.145116379    -1.115560924    -1.574425794
 C       -0.188099670    -0.228465617    -2.855807643
 H       -1.778412130    -0.914644653     1.442076199
 C       -0.183688171    -2.372074927     1.634117998
 C       -0.298160740    -0.182594893     2.849015623
 H       11.165733665    13.520738008   -13.842596398
 H       10.908709596    11.971172805   -13.054704138
 H       12.531264489    12.642096168   -13.129607330
 H       11.370314034    13.001910738    -9.494893518
 H       12.642092397    12.313359009   -10.519615098
 H       11.003008033    11.680062046   -10.594553585
 H        9.402241765    15.557848494   -13.045579572
 H        9.594653836    17.164844700   -13.727845190
 H        9.454559884    16.982055861   -11.985677430
 H       13.104395406    17.879409857   -12.735373986
 H       11.682923496    18.377019569   -11.799557557
 H       11.664680378    18.462732064   -13.556322379
 H       10.901438612    22.666183411    -1.342493906
 H       11.317023418    23.848664616    -0.109813140
 H        9.625214201    23.490898894    -0.428345269
 H       10.442378406    21.884503625     2.947350161
 H        9.307371422    22.976457631     2.132914813
 H       10.997890448    23.426101788     2.312817004
 H        8.076763843    17.928340121     1.225721950
 H        9.279618278    17.084868050     2.193040820
 H        9.539063695    17.280410978     0.464991911
 H       11.990689596    19.637015604     2.218150395
 H       11.884639067    18.347919866     1.002052411
 H       11.499639578    18.016243094     2.684062509
 H       -3.446898358    12.968073074    -3.238402503
 H       -5.007243601    12.608618483    -3.966696138
 H       -4.086471193    11.317435521    -3.205964210
 H       -7.035209081    12.059483858    -0.888471385
 H       -6.197098238    10.752029326    -1.749370240
 H       -7.002276906    12.031317857    -2.644275446
 H       -3.820586667    11.403206499     2.619273711
 H       -4.931018097    12.473686714     3.462441286
 H       -3.455581754    13.132546546     2.768205791
 H       -6.325854610    14.338496667     0.539921401
 H       -4.926100374    14.893974573     1.475573712
 H       -6.307107294    14.169605389     2.289025790
 H       -2.525423974    -1.686023134    -0.717676788
 H       -2.435011407    -1.681477477    -2.471765719
 H       -2.697919645    -0.166533855    -1.620337867
 H        0.899657118    -0.120497191    -2.954618161
 H       -0.634480414     0.768786893    -2.979670362
 H       -0.517309423    -0.821879675    -3.720818136
 H       -0.463492539    -2.976241530     0.761482264
 H       -0.645749313    -2.859007315     2.505260716
 H        0.901801780    -2.465105321     1.771247811
 H       -0.652077608     0.857978590     2.877559986
 H        0.780556476    -0.170268519     3.054008768
 H       -0.769350477    -0.690613326     3.702434472

