187   

Si        0.000000000     0.000000000     0.000000000
 C        1.864790282     0.000000000     0.000000000
 C       -0.681147311     1.710150351     0.000000000
 C        0.086078712     2.789039662    -0.451199475
 C       -0.437155127     4.081974399    -0.448084980
 C       -1.735659938     4.324786197     0.006332766
 C       -2.505051248     3.242274736     0.453532011
 C       -1.987770241     1.950222753     0.445947754
 C       -2.327098019     5.657490412     0.029246797
 C       -1.710386062     6.781700847    -0.373260826
 C       -2.319761464     8.106816810    -0.342421505
 C       -1.575875896     9.206125628    -0.789265287
 C       -2.120764510    10.488643090    -0.776393786
 C       -3.430047833    10.695619319    -0.330480480
 C       -4.178003495     9.597155267     0.111118162
 C       -3.627116972     8.317992923     0.106577253
Si       -4.208913317    12.362570438    -0.288077765
 C       -5.950259760    12.147271015    -0.799300022
 C       -7.021696205    12.618493582    -0.149046882
 C       -8.401679425    12.422204057    -0.595203773
 C       -9.441704896    12.965237029     0.172829199
 C      -10.765132733    12.808893342    -0.204059313
 C      -11.095976423    12.027786283    -1.331041039
 C      -10.055787901    11.472377830    -2.095216856
 C       -8.730218753    11.693059242    -1.740912678
 N      -12.457312039    11.891337662    -1.684801692
 C      -13.389433706    11.559335987    -0.588210743
 C      -12.738511606    11.127809419    -2.912965059
 C      -13.197984026    10.156144833     0.017716538
 C      -12.370171488    10.190982388     1.318659631
 N      -11.669414228     8.928514227     1.640668165
 C      -10.585030894     8.681817635     0.733585356
 C       -9.376661907     9.339428190     1.014970440
 C       -8.280339765     9.153919004     0.186451708
 C       -8.358129005     8.309350621    -0.931086658
 C       -9.561914535     7.651324896    -1.194405017
 C      -10.668034922     7.824877342    -0.368569773
 C      -12.588205841     7.788809790     1.812907255
 C       -7.173501522     8.143355552    -1.779085286
 C       -7.147771875     7.361182917    -2.865260806
Si       -5.724580861     7.092028384    -3.979663409
 C       -6.280115773     7.343651563    -5.715978452
 C       -7.419059470     8.112224012    -5.981224864
 C       -7.849261026     8.309641001    -7.292409847
 C       -7.146218699     7.755502060    -8.365719268
 C       -6.001579877     6.993048234    -8.097388285
 C       -5.571167046     6.790086535    -6.788607724
 C       -7.559535188     7.935953673    -9.753476180
 C       -8.633971631     8.641299769   -10.146127184
 C       -9.047819790     8.822136900   -11.533581873
 C       -8.348828931     8.265552504   -12.607767770
 C       -8.780192865     8.463940793   -13.919263618
 C       -9.920092157     9.228983438   -14.185176300
 C      -10.623339041     9.788213877   -13.109537388
 C      -10.192993030     9.584381980   -11.801458804
Si      -10.502106841     9.499997383   -15.910319307
 C       -9.201478077     9.017331432   -17.157338979
 C      -12.064968358     8.458745021   -16.221136640
 C      -10.952207443    11.339017309   -16.108363855
 C       -4.317306338     8.302332205    -3.584649115
 C       -5.099873738     5.309483291    -3.766527768
 C       -4.086530471    13.044486396     1.482855778
 C       -3.344485953    13.577429276    -1.465026908
 C       -0.627757859    -0.906099655    -1.551803032
 C       -0.649160164    -0.920718189     1.534862445
 H        1.109698756     2.660606680    -0.813489303
 H        0.180085057     4.904890546    -0.803573412
 H       -3.519946838     3.409995774     0.810418107
 H       -2.636070285     1.144805842     0.802509717
 H       -3.349440741     5.694477540     0.421678248
 H       -0.688071754     6.752233861    -0.758595067
 H       -0.558625891     9.061467055    -1.146915287
 H       -1.491183237    11.309949745    -1.127451710
 H       -5.206249495     9.703280232     0.475269295
 H       -4.229339598     7.479478471     0.454449158
 H       -6.059761170    11.579505596    -1.739543268
 H       -6.946932496    13.196128266     0.781403985
 H       -9.208371997    13.539341916     1.069733521
 H      -11.550306032    13.291370812     0.371773294
 H      -10.268084343    10.856078194    -2.963690852
 H       -7.941016408    11.258769337    -2.359011362
 H      -13.818184192    11.175148266    -3.134067471
 H      -12.440522768    10.068099581    -2.861512341
 H      -12.215734498    11.604448343    -3.762289997
 H      -13.250211331     8.003910088     2.669507124
 H      -12.001446488     6.888922380     2.067727502
 H      -13.214585449     7.561061072     0.938370216
 H       -9.314614674     9.995084247     1.882333033
 H       -7.352265026     9.685360123     0.404537127
 H       -9.646374410     6.988214109    -2.055847331
 H      -11.591499333     7.298646256    -0.589582361
 H       -6.306747006     8.728014357    -1.441466902
 H       -8.038144992     6.783291392    -3.167713089
 H       -8.005762223     8.576716486    -5.181231622
 H       -8.741074966     8.906308127    -7.474152407
 H       -5.439913816     6.553768847    -8.919407840
 H       -4.671245452     6.187150408    -6.639077472
 H       -6.917720799     7.443242007   -10.489750741
 H       -9.275259727     9.134275149    -9.409767028
 H       -7.456479438     7.668709583   -12.428040948
 H       -8.192071914     8.003160261   -14.717701426
 H      -11.520963407    10.395356791   -13.256742521
 H      -10.753086132    10.025599370   -10.979276289
 H      -13.304899381    12.342545513     0.197627154
 H      -14.423521670    11.659322467    -0.991938886
 H      -14.181217970     9.693299411     0.212310984
 H      -12.700380022     9.496082723    -0.720357483
 H      -11.596009320    10.992406238     1.262170646
 H      -13.021349878    10.441575004     2.184014517
 H        2.262483555    -1.029274716     0.053627205
 H        2.259495696     0.554579359     0.870967553
 H        2.276337938     0.468234486    -0.911074836
 H       -9.541581118     9.224468494   -18.187706851
 H       -8.956170686     7.942505850   -17.098073031
 H       -8.267766965     9.586218452   -16.995628962
 H      -12.333423357     8.627656765   -17.303970456
 C      -11.819533905     6.952077887   -16.019596176
 C      -13.269128856     8.881280241   -15.360540590
 H      -11.771671250    11.539279951   -15.358153969
 C       -9.773770452    12.273003982   -15.778418417
 C      -11.495852287    11.691342513   -17.504420449
 H       -4.165850258     8.255683906    -2.463714207
 C       -2.979558560     7.938542223    -4.251121613
 C       -4.683857206     9.749548077    -3.958544053
 H       -4.224598818     5.203747301    -4.471630522
 C       -4.600233085     5.015218635    -2.343291547
 C       -6.154441771     4.258890892    -4.157650274
 H       -4.668571513    14.011194569     1.484751811
 C       -4.716109533    12.104028179     2.527032999
 C       -2.641392509    13.358409340     1.908946063
 H       -2.279346078    13.658057206    -1.100517151
 C       -3.311137045    13.090509383    -2.924285150
 C       -3.967287881    14.984879050    -1.426066787
 H       -0.158318926    -1.931391559    -1.520993519
 C       -2.156925559    -1.080785306    -1.577529526
 C       -0.187678779    -0.217967180    -2.856971913
 H       -1.773874135    -0.931116866     1.438682892
 C       -0.172329776    -2.381656953     1.620378747
 C       -0.294954328    -0.200168416     2.848328318
 H      -11.028008136     6.548842748   -16.664214491
 H      -12.730522097     6.386226880   -16.261731379
 H      -11.565611851     6.695905286   -14.980851369
 H      -13.564832892     9.927641311   -15.507955929
 H      -13.100300327     8.725862620   -14.285586775
 H      -14.148534185     8.274982119   -15.622334977
 H       -9.364109820    12.115312223   -14.770306626
 H      -10.101720938    13.321596710   -15.815705796
 H       -8.942789744    12.183537614   -16.490572248
 H      -12.385899696    11.112684198   -17.783239490
 H      -10.750023023    11.561962236   -18.299851879
 H      -11.795695250    12.749042697   -17.534145506
 H       -2.603911004     6.949036658    -3.958828610
 H       -2.205083908     8.657999853    -3.945876741
 H       -3.020174574     7.975432511    -5.347556257
 H       -5.598625867    10.109328690    -3.468066027
 H       -4.807205134     9.894787370    -5.040742184
 H       -3.876893257    10.428790062    -3.646589631
 H       -3.786145685     5.683792264    -2.026836742
 H       -4.191442912     3.995683679    -2.287401834
 H       -5.395485495     5.072641696    -1.588004990
 H       -6.527318498     4.376456702    -5.184354517
 H       -7.023750306     4.254449680    -3.486509734
 H       -5.718141359     3.251095995    -4.103165682
 H       -5.768020633    11.860953278     2.323236997
 H       -4.695086569    12.575689800     3.519499475
 H       -4.170061121    11.154809243     2.628096685
 H       -2.149863172    14.103716441     1.270604906
 H       -1.999578171    12.466479937     1.937565955
 H       -2.631016752    13.774092019     2.927133559
 H       -2.805676439    12.122749804    -3.048565525
 H       -2.756680183    13.806317070    -3.548197205
 H       -4.312297575    13.007636521    -3.370928076
 H       -3.944009309    15.445844241    -0.430337748
 H       -5.009378662    15.001480420    -1.776953660
 H       -3.409915369    15.662093753    -2.089161414
 H       -2.543704300    -1.656002269    -0.726781557
 H       -2.456795701    -1.632038512    -2.480698916
 H       -2.696295035    -0.123372326    -1.610418026
 H        0.901492629    -0.126471206    -2.956230323
 H       -0.619531413     0.786075732    -2.976889136
 H       -0.526245361    -0.803446909    -3.723880015
 H       -0.450245677    -2.981971986     0.744478034
 H       -0.631605335    -2.875731751     2.489031145
 H        0.913663239    -2.470751302     1.756193986
 H       -0.652227678     0.838932904     2.884025367
 H        0.784013591    -0.185345794     3.052192047
 H       -0.763132126    -0.715331988     3.699224327

