187   

Si        0.000000000     0.000000000     0.000000000
 C        1.865353597     0.000000000     0.000000000
 C       -0.679720144     1.711620514     0.000000000
 C        0.146209274     2.809641133    -0.260595903
 C       -0.373006918     4.103882933    -0.259512649
 C       -1.728377535     4.332330237    -0.005608968
 C       -2.555209867     3.231062849     0.252305938
 C       -2.038716929     1.937932692     0.255704214
 C       -2.308015689     5.672526851     0.003942119
 C       -1.610364990     6.797842878    -0.225815661
 C       -2.159700179     8.149128503    -0.223232223
 C       -1.290618336     9.217967535    -0.482906015
 C       -1.757078355    10.528699903    -0.493728778
 C       -3.106120556    10.805984326    -0.232445677
 C       -3.974623281     9.741394574     0.027113799
 C       -3.506031742     8.426769498     0.025882359
Si       -3.690007340    12.549297443    -0.254538356
 C       -5.231703830    12.859922863     0.674349090
 C       -5.651636924    12.191554154     1.756728451
 C       -6.902045917    12.489857415     2.459041178
 C       -7.252381374    11.730017642     3.584792518
 C       -8.425028190    11.976621992     4.279939186
 C       -9.316593394    12.981725782     3.845917202
 C       -8.964972027    13.746549685     2.718644347
 C       -7.766960324    13.510347323     2.055788494
 N      -10.501631303    13.215305885     4.566810035
 C      -11.194026236    12.041450687     5.127276552
 C      -11.403680521    14.256070547     4.052906723
 C      -11.584653155    10.962566132     4.102983351
 C      -12.891831808    11.261284140     3.348325124
 N      -14.130437324    10.927793484     4.074773372
 C      -14.276599178     9.609317336     4.536370932
 C      -13.709541187     8.545169861     3.800987757
 C      -13.844208942     7.239814864     4.241753971
 C      -14.590702674     6.933610744     5.389510868
 C      -15.178995959     7.983641916     6.097620776
 C      -15.033837473     9.302134380     5.682953090
 C      -14.625236893    12.003078341     4.946732617
 C      -14.693948391     5.534372843     5.801925858
 C      -15.371398201     5.098488085     6.873064210
Si      -15.455626873     3.326508834     7.327382629
 C      -13.914624761     2.481199355     6.779872229
 C      -12.698037586     3.167284488     6.907715956
 C      -11.507024497     2.570834664     6.508091329
 C      -11.497973381     1.272020279     5.980788570
 C      -12.709735399     0.587785398     5.861204381
 C      -13.907116571     1.184785843     6.258754731
 C      -10.218273041     0.700208204     5.579376677
 C      -10.043084786    -0.525222871     5.056757213
 C       -8.745400418    -1.067010685     4.665220382
 C       -7.560233321    -0.338480896     4.806360160
 C       -6.337558040    -0.884868138     4.422812925
 C       -6.270725900    -2.181779120     3.900105963
 C       -7.455050375    -2.913983191     3.758446170
 C       -8.677953698    -2.359990614     4.131696733
Si       -4.638976215    -2.870957566     3.404079920
 C       -3.272746190    -2.185017197     4.474060938
 C       -4.657059830    -4.768547804     3.504491877
 C       -4.316436799    -2.354490110     1.598763987
 C      -15.620818444     3.176172393     9.214916131
 C      -16.981377802     2.536333988     6.513759341
 C       -2.331930670    13.675662449     0.462930943
 C       -4.003283544    13.050805890    -2.064715677
 C       -0.606151937    -0.925467482    -1.549648544
 C       -0.658908265    -0.905350614     1.537814146
 H        1.214070109     2.697060701    -0.467411600
 H        0.293557001     4.940409472    -0.462143084
 H       -3.613948172     3.385163955     0.452851242
 H       -2.732247913     1.118072921     0.465671092
 H       -3.379723407     5.711242910     0.215364074
 H       -0.537038715     6.747335879    -0.437273751
 H       -0.238292912     9.023292030    -0.681026203
 H       -1.031389803    11.318655493    -0.707942757
 H       -5.038623743     9.899455014     0.230889101
 H       -4.202186697     7.614328524     0.225178647
 H       -5.821952148    13.697967257     0.267409770
 H       -5.088394899    11.360065186     2.200527248
 H       -6.587386760    10.935488562     3.926690376
 H       -8.654632166    11.390233581     5.165458419
 H       -9.617992553    14.531054601     2.351624382
 H       -7.513692725    14.128433218     1.192875419
 H      -12.275737975    14.361418218     4.719397063
 H      -11.764874911    14.067187685     3.028744576
 H      -10.873905322    15.227573395     4.066394057
 H      -14.446660818    12.984961335     4.478413837
 H      -14.169285731    12.004254022     5.950455175
 H      -15.721441721    11.898970716     5.057439392
 H      -13.158838156     8.743542556     2.885714737
 H      -13.374735178     6.434740158     3.673682668
 H      -15.765099895     7.772543596     6.993037166
 H      -15.505908902    10.086526410     6.264415739
 H      -14.142010247     4.853365852     5.135327048
 H      -15.926975678     5.785945920     7.524806397
 H      -12.643784809     4.183216695     7.314868528
 H      -10.572985526     3.120510839     6.609281304
 H      -12.728267578    -0.421793088     5.455804592
 H      -14.824127463     0.601250607     6.143476572
 H       -9.359330902     1.361361593     5.736509746
 H      -10.892375673    -1.193826000     4.896142376
 H       -7.583477030     0.669004512     5.218372289
 H       -5.446324132    -0.263567219     4.553750021
 H       -7.462817577    -3.929927386     3.354811458
 H       -9.588715876    -2.943165706     4.010028086
 H      -10.522762762    11.594975903     5.900196961
 H      -12.089155380    12.391348621     5.686360959
 H      -10.762080527    10.830655620     3.370365828
 H      -11.666978293     9.983844325     4.619214572
 H      -12.932850105    12.331120846     3.048839233
 H      -12.906372946    10.689581518     2.388477088
 H        2.263161721    -1.029608835     0.043025689
 H        2.262600899     0.545165574     0.875324764
 H        2.274703301     0.476316645    -0.907969762
 H       -2.299819080    -2.643077674     4.220801106
 H       -3.468907890    -2.390964574     5.542036463
 H       -3.167663389    -1.091857006     4.356812340
 H       -5.481549688    -5.109849833     2.812957324
 C       -3.344250510    -5.415589461     3.025616932
 C       -4.982878634    -5.284762027     4.917596919
 H       -3.228375963    -2.585384238     1.404299822
 C       -5.159347344    -3.131117167     0.572710577
 C       -4.541422591    -0.846983665     1.379043437
 H      -16.572186666     3.717911622     9.488108633
 C      -15.744901943     1.719541342     9.695138513
 C      -14.456545304     3.851260275     9.962340426
 H      -16.971115242     1.450325844     6.819789366
 C      -18.310151776     3.150733267     6.989467574
 C      -16.925297133     2.602537675     4.976768252
 H       -1.438185331    13.562099544    -0.215707264
 C       -2.726437130    15.162972970     0.482967077
 C       -1.913631109    13.248685606     1.881042688
 H       -4.320233980    14.133027539    -2.037993793
 C       -2.752067903    12.941787746    -2.952984044
 C       -5.141635186    12.233998459    -2.702020943
 H       -0.088616125    -1.927960035    -1.525502076
 C       -2.124376309    -1.175073136    -1.573745944
 C       -0.204161132    -0.212804938    -2.854039073
 H       -1.785477456    -0.857068005     1.460429330
 C       -0.253222466    -2.388449586     1.600293404
 C       -0.250248741    -0.215584772     2.851510182
 H       -3.077126616    -5.147026276     1.995172302
 H       -3.438448858    -6.511122023     3.042684999
 H       -2.487724632    -5.172722576     3.668443114
 H       -5.935995901    -4.904353237     5.311514120
 H       -4.203169174    -5.043363935     5.652582003
 H       -5.069764222    -6.380612788     4.908589654
 H       -4.984471365    -4.214101739     0.594910435
 H       -4.910605059    -2.800894348    -0.446653315
 H       -6.239093334    -2.965250664     0.692276869
 H       -3.930551689    -0.212535025     2.035523586
 H       -5.591138872    -0.548878604     1.518851618
 H       -4.284031214    -0.574569922     0.344651030
 H      -16.613069584     1.194882375     9.276234051
 H      -15.867971957     1.692498598    10.787539240
 H      -14.851795265     1.117839725     9.473504954
 H      -14.335673931     4.914131795     9.712889451
 H      -13.491183440     3.355723901     9.784612584
 H      -14.628695778     3.806516005    11.047067130
 H      -18.463426841     3.074002598     8.073342791
 H      -19.155335316     2.624167999     6.523072174
 H      -18.416074090     4.208108554     6.709136211
 H      -16.029756397     2.130292063     4.550095615
 H      -16.968544522     3.632269783     4.592411672
 H      -17.787289804     2.075751233     4.544188507
 H       -2.969208278    15.563310438    -0.509398019
 H       -1.889773801    15.767959132     0.861401212
 H       -3.578212664    15.369748262     1.146367740
 H       -1.558356864    12.210075492     1.936501088
 H       -2.722648090    13.360872694     2.617397628
 H       -1.084464892    13.876803502     2.235894146
 H       -1.920300444    13.572160665    -2.613964453
 H       -2.987607961    13.269406795    -3.976009315
 H       -2.378601290    11.911339851    -3.041371435
 H       -6.091389597    12.306856404    -2.154673115
 H       -4.897800222    11.166242206    -2.800476762
 H       -5.343266681    12.597419202    -3.719583342
 H       -2.482346624    -1.763798055    -0.718034368
 H       -2.396385606    -1.746155396    -2.473237892
 H       -2.708631290    -0.245225342    -1.615556116
 H        0.878488757    -0.064547421    -2.955948398
 H       -0.686016683     0.768778811    -2.970039199
 H       -0.514050144    -0.811887304    -3.722193387
 H       -0.578579955    -2.965602460     0.725119748
 H       -0.717768903    -2.868434582     2.474404854
 H        0.829408140    -2.532210194     1.711947365
 H       -0.552374436     0.840191464     2.899709263
 H        0.830052633    -0.258587452     3.041216283
 H       -0.735083262    -0.713400059     3.704282180

