187   

Si        0.000000000     0.000000000     0.000000000
 C        1.865050092     0.000000000     0.000000000
 C       -0.684442904     1.708789229     0.000000000
 C        0.102542084     2.802518003     0.374453623
 C       -0.427754759     4.092754695     0.370326596
 C       -1.755468963     4.318038038    -0.001995702
 C       -2.544249341     3.220415483    -0.371946319
 C       -2.017892502     1.931871221    -0.369208489
 C       -2.354897912     5.648048814    -0.022130882
 C       -1.716019041     6.783648692     0.306876037
 C       -2.323074713     8.110551367     0.284071866
 C       -1.545413114     9.216188084     0.651224007
 C       -2.084183617    10.501012380     0.643895606
 C       -3.411646731    10.711341361     0.254728936
 C       -4.190225423     9.607791863    -0.114777946
 C       -3.652025542     8.322677762    -0.095133758
Si       -4.163446105    12.388051388     0.229919832
 C       -5.311230089    12.582530561    -1.181386011
 C       -5.162286117    11.935505876    -2.345384770
 C       -6.063867416    12.071522191    -3.490244191
 C       -5.790162162    11.333773794    -4.651595895
 C       -6.609342111    11.423723647    -5.764691479
 C       -7.705662666    12.310642930    -5.769471857
 C       -7.983635302    13.048442806    -4.607482226
 C       -7.187604499    12.901411106    -3.477018925
 N       -8.516003674    12.369506629    -6.928895285
 C       -7.798161298    12.569064225    -8.205410254
 C       -9.728377686    13.200950580    -6.830680463
 C       -7.105371473    13.937903533    -8.352200266
 C       -5.585832528    13.851750893    -8.099508379
 N       -4.964646817    15.122228395    -7.658432081
 C       -5.393133664    15.478879579    -6.338944049
 C       -4.791965987    14.774829337    -5.281246476
 C       -5.150480857    15.059003510    -3.973904498
 C       -6.074898623    16.074777084    -3.684814829
 C       -6.649394768    16.783571627    -4.741307525
 C       -6.315572118    16.492988680    -6.061223888
 C       -5.085306168    16.195794595    -8.660442274
 C       -6.414910181    16.329402527    -2.282903360
 C       -7.280498271    17.268572875    -1.881989965
Si       -7.741385958    17.629261453    -0.150920348
 C       -9.576610792    17.671274627    -0.025109367
 C      -10.348935169    16.932238074    -0.930684556
 C      -11.738535230    16.952493635    -0.850060573
 C      -12.388735724    17.697127260     0.143123778
 C      -11.613978592    18.426740903     1.049288051
 C      -10.221837617    18.414616569     0.967567218
 C      -13.847205996    17.685803386     0.185396015
 C      -14.593378177    18.358580558     1.077857224
 C      -16.052012249    18.345566125     1.117966287
 C      -16.824431812    17.615463221     0.211083084
 C      -18.217208090    17.631227666     0.285560088
 C      -18.868738395    18.384487881     1.267161297
 C      -18.096166244    19.118148908     2.177824566
 C      -16.706253116    19.095807893     2.104493175
Si      -20.706107824    18.415119781     1.377896347
 C      -21.497647407    17.717571494    -0.160412552
 C      -21.265965298    17.383735165     2.876547771
 C      -21.260709195    20.216683250     1.643251510
 C       -7.147783136    16.222295687     0.988801045
 C       -6.960879723    19.269605728     0.392050932
 C       -5.118778203    12.681720557     1.845636819
 C       -2.812653919    13.721796672     0.075077181
 C       -0.649924210    -0.911942734    -1.540027176
 C       -0.619275552    -0.919223336     1.547478928
 H        1.147883350     2.688679992     0.674433194
 H        0.206407692     4.927723485     0.662618452
 H       -3.581335649     3.373790347    -0.664628813
 H       -2.681561104     1.115106766    -0.666683185
 H       -3.403479930     5.670902152    -0.334445602
 H       -0.668329501     6.763460041     0.619897671
 H       -0.508555005     9.073278246     0.949223472
 H       -1.430942916    11.323563384     0.946926327
 H       -5.234837710     9.713193596    -0.428313067
 H       -4.278972399     7.480601698    -0.383141923
 H       -6.142802039    13.283867653    -1.014391717
 H       -4.337326142    11.231801103    -2.530695323
 H       -4.928101220    10.665958029    -4.676645735
 H       -6.408661091    10.806165476    -6.636124328
 H       -8.814434606    13.746767609    -4.574884057
 H       -7.435044642    13.474414143    -2.580983422
 H      -10.329567255    13.076419494    -7.747301221
 H       -9.528947635    14.275322710    -6.689489511
 H      -10.346590220    12.839730046    -5.988907572
 H       -4.549621554    15.880626316    -9.572766954
 H       -4.581292526    17.101926418    -8.280590249
 H       -6.116973249    16.457933065    -8.936717938
 H       -4.056931707    14.001554087    -5.500340419
 H       -4.694341952    14.490044775    -3.159383481
 H       -7.372100629    17.574826727    -4.540889042
 H       -6.779434598    17.053403471    -6.866747651
 H       -5.891779527    15.661868625    -1.584030450
 H       -7.784024067    17.925471173    -2.610956176
 H       -9.894595161    16.328542251    -1.724070245
 H      -12.324458125    16.379115517    -1.565841764
 H      -12.094607611    19.013531209     1.829887000
 H       -9.668246441    19.006594119     1.701322707
 H      -14.321776804    17.070991539    -0.585068581
 H      -14.119756446    18.973599519     1.848690529
 H      -16.342293379    17.024046104    -0.565112876
 H      -18.767240904    17.039335566    -0.451203228
 H      -18.550467135    19.725280907     2.965971823
 H      -16.123344700    19.670740375     2.821661620
 H       -7.064577909    11.741405546    -8.328341567
 H       -8.539207632    12.429719566    -9.025803790
 H       -7.295471291    14.350340614    -9.358193992
 H       -7.556428766    14.662821741    -7.645200817
 H       -5.370822346    13.086160906    -7.316532507
 H       -5.057761332    13.519962871    -9.019114035
 H        2.262653471    -1.029826596    -0.040773677
 H        2.275922133     0.479340499     0.905712079
 H        2.260136780     0.543596573    -0.877551621
 H      -22.599155889    17.780411482    -0.104517543
 H      -21.232725322    16.656604639    -0.312384465
 H      -21.178778497    18.277172795    -1.058525936
 H      -22.393979131    17.400991466     2.854066310
 C      -20.809126391    15.916132458     2.786822317
 C      -20.807778820    17.960972139     4.227843281
 H      -20.783578833    20.547981994     2.611252325
 C      -20.764798006    21.155798116     0.528793434
 C      -22.784453116    20.374543451     1.791036612
 H       -6.067290203    16.033043545     0.723646349
 C       -7.214402374    16.569682645     2.485420211
 C       -7.944517837    14.927810620     0.742612639
 H       -7.266413501    19.421217962     1.467996874
 C       -5.422691450    19.249455813     0.333193575
 C       -7.480128025    20.468431669    -0.421571678
 H       -5.540967181    13.727548735     1.772807937
 C       -6.291798296    11.700887792     2.018819565
 C       -4.225162964    12.618600314     3.096032371
 H       -2.120840005    13.562021086     0.951502458
 C       -1.992352175    13.570574402    -1.218708593
 C       -3.351619942    15.161083789     0.154315653
 H       -1.774450942    -0.923280974    -1.442177013
 C       -0.298579850    -0.182002874    -2.849054947
 C       -0.172003001    -2.371749755    -1.636194357
 H       -0.136831719    -1.938494863     1.511743827
 C       -0.186905588    -0.231809235     2.855563648
 C       -2.145796059    -1.114650395     1.573757165
 H      -21.164487490    15.402478345     1.884349912
 H      -21.203924900    15.345795588     3.639896252
 H      -19.715652711    15.806376833     2.823420225
 H      -21.169692391    18.980458105     4.411581958
 H      -19.714556906    17.964461500     4.341926700
 H      -21.198437983    17.344581575     5.050729624
 H      -19.672893605    21.139105377     0.401194189
 H      -21.030097331    22.195881988     0.766342612
 H      -21.215058283    20.937715788    -0.448631986
 H      -23.205315212    19.783745677     2.614854520
 H      -23.332820487    20.111694701     0.876758697
 H      -23.033628923    21.423707381     2.007235669
 H       -6.597604317    17.434565193     2.760324265
 H       -6.842725756    15.725085472     3.084353696
 H       -8.237705051    16.763428591     2.835835045
 H       -7.877903649    14.563074045    -0.291686848
 H       -9.012229633    15.028949809     0.986901521
 H       -7.567147585    14.118885678     1.385554211
 H       -4.973035779    18.465925963     0.956800531
 H       -5.019528965    20.203994544     0.700478099
 H       -5.035407176    19.126404787    -0.688624196
 H       -8.573655558    20.574547858    -0.393460310
 H       -7.177145902    20.432875737    -1.477271497
 H       -7.071090284    21.404880050    -0.015943238
 H       -7.003167375    11.715125125     1.181383712
 H       -6.867999950    11.955509472     2.919754831
 H       -5.961178813    10.660692763     2.153061187
 H       -3.415701120    13.359642411     3.091741307
 H       -3.770989098    11.629123636     3.249400173
 H       -4.822664667    12.821875069     3.996607037
 H       -1.518166418    12.585342020    -1.323923782
 H       -1.175997119    14.306244728    -1.237025766
 H       -2.587303768    13.748116829    -2.126818607
 H       -3.893753957    15.373512087     1.084516064
 H       -4.007850842    15.418573316    -0.689672919
 H       -2.517075453    15.876590790     0.117944876
 H       -0.658358883     0.856544709    -2.876934663
 H       -0.766862079    -0.692106684    -3.702840895
 H        0.780021483    -0.163488718    -3.054120919
 H       -0.450288039    -2.978868581    -0.765105080
 H        0.914163825    -2.458971009    -1.771652074
 H       -0.629983671    -2.859479266    -2.509043142
 H        0.901042042    -0.125986932     2.954289018
 H       -0.517120679    -0.825761678     3.719913754
 H       -0.631612663     0.766018920     2.980643135
 H       -2.527259381    -1.682716074     0.715933244
 H       -2.697175042    -0.164838827     1.621661326
 H       -2.436295349    -1.682066702     2.469985777

