187   

Si        0.000000000     0.000000000     0.000000000
 C        1.861503677     0.000000000     0.000000000
 C       -0.669751480     1.712971586     0.000000000
 C        0.149243764     2.828017502    -0.201940861
 C       -0.391212963     4.114882185    -0.195937503
 C       -1.752720550     4.311862855     0.043302884
 C       -2.570695503     3.193207855     0.255757079
 C       -2.038688788     1.908809510     0.229353430
 C       -2.377622686     5.627789910     0.062904887
 C       -1.750841146     6.798665374    -0.140088257
 C       -2.431632124     8.089540785    -0.108226533
 C       -3.804234658     8.196720713     0.139691354
 C       -4.430665616     9.440273867     0.164905353
 C       -3.697091829    10.605479107    -0.080900085
 C       -2.325302504    10.502957595    -0.343392701
 C       -1.700873954     9.257090473    -0.359241809
Si       -4.534294365    12.242249920    -0.045123933
 C       -3.245371458    13.534686522    -0.048352789
 C       -3.220017614    14.585809890    -0.876908534
 C       -2.178118835    15.612505699    -0.864944436
 C       -2.266639606    16.665118020    -1.786648640
 C       -1.309051623    17.664485058    -1.820685254
 C       -0.194017330    17.605947374    -0.958875750
 C       -0.100231489    16.549451003    -0.040051115
 C       -1.093671787    15.579445032     0.014784773
 N        0.756400242    18.651157119    -1.031987790
 C        1.224553068    18.980946493    -2.397203304
 C        1.830393639    18.630857031    -0.026609805
 C        1.415877466    17.790630727    -3.355967720
 C        2.712583026    16.998637264    -3.101676179
 N        2.552106514    15.538768249    -3.204776659
 C        2.313830308    14.776858116    -2.054837825
 C        2.861107377    15.181325194    -0.817637412
 C        2.633930802    14.437943136     0.327632450
 C        1.946832218    13.215807483     0.278547310
 C        1.437445079    12.794137571    -0.952194520
 C        1.603264859    13.559383055    -2.100010586
 C        1.911589436    15.105615151    -4.454695288
 C        1.746225707    12.488793381     1.531463673
 C        1.115456515    11.314060259     1.667111716
Si        0.913420150    10.477946603     3.284686008
 C        1.437978647     8.716330934     3.195674921
 C        2.177136737     8.238337579     2.107126580
 C        2.568423768     6.902153200     2.051364992
 C        2.234437001     6.012701958     3.080399476
 C        1.494738657     6.493591649     4.165182752
 C        1.097796977     7.828332021     4.222640102
 C        2.664474978     4.620877501     2.982038584
 C        2.401321780     3.676750829     3.901672304
 C        2.824118518     2.282889851     3.817158453
 C        3.563544043     1.779967547     2.743404492
 C        3.945170473     0.438793213     2.706862455
 C        3.602583258    -0.430580395     3.749016295
 C        2.865568786     0.072910578     4.827720319
 C        2.482771551     1.411577378     4.860114084
Si        4.121198646    -2.196733197     3.671875744
 C        3.913233837    -2.872063278     1.945639297
 C        5.953649093    -2.312198730     4.176408212
 C        3.108053163    -3.230513154     4.907895355
 C        2.003319199    11.342681476     4.592220717
 C       -0.885301553    10.592324811     3.888069208
 C       -5.646759204    12.400246636    -1.581997037
 C       -5.624027199    12.396504122     1.503139889
 C       -0.611467990    -0.941470297    -1.536771677
 C       -0.670285889    -0.866169984     1.556653568
 H        1.224825697     2.732528579    -0.371724821
 H        0.262304591     4.969038684    -0.362250450
 H       -3.633988441     3.328041612     0.443218385
 H       -2.725952064     1.074775787     0.396908399
 H       -3.454574503     5.608408285     0.264128340
 H       -0.676418653     6.839355233    -0.333212236
 H       -4.397785683     7.303638116     0.326687815
 H       -5.502563449     9.460757708     0.379306468
 H       -1.706045269    11.384058891    -0.544183142
 H       -0.633213325     9.192489790    -0.561743966
 H       -2.463309782    13.390209555     0.716141927
 H       -3.987739018    14.761745698    -1.641754290
 H       -3.109431261    16.711022184    -2.476445640
 H       -1.418283602    18.498928763    -2.507832220
 H        0.754585272    16.462666019     0.625405816
 H       -1.000523874    14.769037983     0.741229382
 H        2.430511516    19.552102577    -0.114229841
 H        2.503068033    17.761647322    -0.096678640
 H        1.375394222    18.640894410     0.981643231
 H        2.210977641    15.769427193    -5.282807424
 H        0.809651680    15.093352917    -4.399481830
 H        2.266165363    14.089451470    -4.710401314
 H        3.468171894    16.079671882    -0.757297177
 H        3.031230792    14.795979409     1.278344806
 H        0.886024268    11.854513233    -1.017122570
 H        1.161838039    13.210721775    -3.027837003
 H        2.183811154    13.021785765     2.389379103
 H        0.670048555    10.792251537     0.808018889
 H        2.467404750     8.887998167     1.275720730
 H        3.139870643     6.548208373     1.195875854
 H        1.215273923     5.822809660     4.975455480
 H        0.511638180     8.142240862     5.091022220
 H        3.233838489     4.378972568     2.080512359
 H        1.825476280     3.923008322     4.799104464
 H        3.845986177     2.435842829     1.921800693
 H        4.521630869     0.103221226     1.839473890
 H        2.569769285    -0.555923839     5.671794496
 H        1.908810024     1.782094304     5.707595497
 H        0.458712841    19.671967235    -2.828023289
 H        2.162660829    19.572361884    -2.331357866
 H        0.542546158    17.108825565    -3.286869109
 H        1.401930048    18.162228652    -4.397245346
 H        3.489087650    17.290528198    -3.848503471
 H        3.139019781    17.264783312    -2.110578697
 H        2.264709934    -1.024168227     0.090709435
 H        2.242513890     0.583217419     0.861125452
 H        2.273582161     0.443741052    -0.922000736
 H        4.199073416    -3.937747349     1.898296254
 H        4.533179375    -2.326393117     1.213388175
 H        2.860117702    -2.794496056     1.616170356
 H        6.228274096    -3.402874724     4.089118424
 C        6.882617488    -1.511771185     3.245539188
 C        6.208250020    -1.868567956     5.628199111
 H        3.248061214    -2.733556766     5.912011843
 C        1.602447448    -3.241927328     4.589157843
 C        3.595556525    -4.685673295     5.034667472
 H        1.728506230    12.435798036     4.551943779
 C        1.759102826    10.849732677     6.029569447
 C        3.505380405    11.208841394     4.280674187
 H       -0.853522624    10.298376789     4.978235397
 C       -1.447888664    12.021396034     3.795890207
 C       -1.838433288     9.621955879     3.175406627
 H       -6.018180315    13.465783326    -1.585968594
 C       -4.874089181    12.155487166    -2.891520726
 C       -6.873758296    11.471783235    -1.554804962
 H       -6.376431593    11.558055221     1.433683522
 C       -4.836668955    12.217709157     2.811898805
 C       -6.395988287    13.726884750     1.563887491
 H       -0.105137660    -1.949052103    -1.496136096
 C       -2.132727427    -1.175908945    -1.559508074
 C       -0.200850314    -0.253993028    -2.852310620
 H       -1.795249769    -0.803019452     1.485131476
 C       -0.289930145    -2.353917801     1.646618218
 C       -0.241307068    -0.150084072     2.848909755
 H        6.817972539    -1.819893102     2.194343404
 H        7.930690951    -1.658797444     3.543929184
 H        6.700914893    -0.428293464     3.290948587
 H        5.652612965    -2.458662953     6.368123194
 H        5.970381271    -0.808794050     5.798955883
 H        7.272577945    -1.987754512     5.877461799
 H        1.170949059    -2.239267717     4.453677957
 H        1.045421826    -3.708031239     5.414038682
 H        1.365665072    -3.824625848     3.688451425
 H        4.639861698    -4.766899260     5.362793443
 H        3.492680590    -5.256587383     4.102563370
 H        2.996227599    -5.217570936     5.787839582
 H        0.731272566    11.011980130     6.377630056
 H        2.407505932    11.397382149     6.728976821
 H        1.997950471     9.785441777     6.163902283
 H        3.783150363    11.564031031     3.279028417
 H        3.865339885    10.173470478     4.370062809
 H        4.094216472    11.802406887     4.993635453
 H       -0.834998408    12.770684732     4.312594507
 H       -2.440882318    12.062304682     4.265932845
 H       -1.580057661    12.356828337     2.756489870
 H       -1.503540752     8.575445377     3.199937018
 H       -2.005222005     9.882104858     2.118886408
 H       -2.826628238     9.636953731     3.655171263
 H       -3.995637721    12.804436733    -3.012420914
 H       -5.524081743    12.349047250    -3.755845378
 H       -4.528337640    11.116460334    -2.992192746
 H       -7.529300429    11.639557536    -0.690956463
 H       -6.604499662    10.406483457    -1.572784646
 H       -7.493690553    11.643407729    -2.446831672
 H       -4.265964749    11.277912106     2.851669643
 H       -5.525757163    12.194865159     3.667583666
 H       -4.136147375    13.043582226     3.000061976
 H       -7.059583560    13.885910319     0.704461239
 H       -5.734812412    14.602133726     1.640371072
 H       -7.038716475    13.748801816     2.455449731
 H       -2.502605844    -1.723229985    -0.683344285
 H       -2.406441000    -1.779881620    -2.436511288
 H       -2.706030273    -0.241889975    -1.641238355
 H        0.883874299    -0.123232212    -2.955945741
 H       -0.668366389     0.732715100    -2.981485429
 H       -0.520880185    -0.860637360    -3.711114030
 H       -0.647139364    -2.945399078     0.794245869
 H       -0.740035120    -2.802179923     2.544110795
 H        0.793350666    -2.512140360     1.733995805
 H       -0.550195703     0.904850540     2.883142073
 H        0.846535089    -0.171958335     3.015819153
 H       -0.699889350    -0.633667591     3.721784859

