187   

Si        0.000000000     0.000000000     0.000000000
 C        1.865246887     0.000000000     0.000000000
 C       -0.681447525     1.709881512     0.000000000
 C        0.120420369     2.807307145     0.329072283
 C       -0.407742564     4.098311254     0.325446870
 C       -1.747883746     4.321103149    -0.001155649
 C       -2.551122219     3.219782424    -0.326512362
 C       -2.026814905     1.930307877    -0.324920552
 C       -2.344206554     5.652624135    -0.018357823
 C       -1.688925251     6.789714826     0.270883751
 C       -2.288474901     8.119955116     0.252706250
 C       -1.489572602     9.224492998     0.576047281
 C       -2.018800739    10.512703253     0.571853393
 C       -3.358915120    10.728851877     0.229080325
 C       -4.157977471     9.626622799    -0.095587882
 C       -3.629044869     8.337111464    -0.077953535
Si       -4.077492536    12.420907875     0.217164043
 C       -5.398718019    12.604063313    -1.039070843
 C       -5.415822807    11.907855906    -2.183425400
 C       -6.448118910    12.019190762    -3.216242802
 C       -6.326375445    11.219945312    -4.363886505
 C       -7.270119235    11.279674440    -5.376019228
 C       -8.364694202    12.156909992    -5.265873713
 C       -8.508033903    12.936480948    -4.112547697
 C       -7.571405905    12.839583210    -3.086642140
 N       -9.290773657    12.155502196    -6.354446313
 C       -8.737727826    12.798409223    -7.569603707
 C      -10.644364894    12.633524094    -6.023142353
 C       -8.618517431    14.333186531    -7.487957679
 C       -7.347123141    14.885437231    -8.162161606
 N       -6.139971132    14.941407771    -7.304981557
 C       -6.367176569    15.488857279    -6.016872144
 C       -7.029690050    16.729827413    -5.919883554
 C       -7.271439756    17.299666846    -4.679619317
 C       -6.874012999    16.656355622    -3.499265420
 C       -6.185642540    15.445094934    -3.604091385
 C       -5.897429822    14.884093176    -4.841389071
 C       -5.347860985    13.699865042    -7.345080837
 C       -7.146172492    17.288459121    -2.206277847
 C       -6.798804625    16.738811605    -1.036013887
Si       -7.076186574    17.415326816     0.635900003
 C       -5.464853470    17.336525537     1.521200047
 C       -4.351346135    18.002033025     0.991020481
 C       -3.123489239    17.954343274     1.646029373
 C       -2.973007305    17.228346084     2.835325119
 C       -4.084204583    16.562496925     3.358759568
 C       -5.318068719    16.618603340     2.711770825
 C       -1.668151732    17.206457573     3.487070627
 C       -1.400317490    16.559057011     4.633785909
 C       -0.097549111    16.533822527     5.289815849
 C        1.019108564    17.196402899     4.774114590
 C        2.246495365    17.145560095     5.434832835
 C        2.385365930    16.421128877     6.622799599
 C        1.267102590    15.753354156     7.140548048
 C        0.041888388    15.811618868     6.482621416
Si        3.998244673    16.343804779     7.507317194
 C        5.394278212    16.978997268     6.445762518
 C        3.904828702    17.397566593     9.089699310
 C        4.319003541    14.534002823     8.002684305
 C       -7.719234549    19.202932477     0.605196183
 C       -8.400225867    16.332969863     1.477278019
 C       -4.740791717    12.891238197     1.930504112
 C       -2.703487295    13.659365027    -0.248402933
 C       -0.653002145    -0.906208605    -1.541789154
 C       -0.615850793    -0.922251818     1.547048670
 H        1.175783305     2.695762640     0.592607363
 H        0.238198585     4.935943988     0.582302721
 H       -3.597886820     3.371226285    -0.583412244
 H       -2.701822292     1.110830849    -0.587258298
 H       -3.403322758     5.675446524    -0.291841459
 H       -0.630213252     6.768243283     0.545115396
 H       -0.443450694     9.077178539     0.837409952
 H       -1.349029625    11.334328953     0.842373538
 H       -5.213671979     9.734813772    -0.366597431
 H       -4.272954462     7.496225277    -0.328930271
 H       -6.181047913    13.338780152    -0.796993445
 H       -4.635705762    11.175536681    -2.440286332
 H       -5.479754336    10.539661303    -4.461550897
 H       -7.184962039    10.639146474    -6.251561127
 H       -9.345935144    13.619768413    -4.006141824
 H       -7.715814214    13.434348993    -2.183095951
 H      -11.312259000    12.407437035    -6.872373544
 H      -10.713015513    13.710219147    -5.805266013
 H      -11.022097340    12.072118544    -5.150397974
 H       -5.170306672    13.412956387    -8.394471897
 H       -5.816061644    12.849678306    -6.820350486
 H       -4.357467349    13.891476845    -6.892725882
 H       -7.344227017    17.244948429    -6.823288529
 H       -7.781328732    18.260948063    -4.626008021
 H       -5.833390758    14.931296369    -2.704877317
 H       -5.349277622    13.944818823    -4.873560233
 H       -7.661776217    18.251816130    -2.287104932
 H       -6.282025492    15.761162155    -1.005264900
 H       -4.404933605    18.567548538     0.054791280
 H       -2.271110599    18.483634730     1.224577805
 H       -3.995055075    15.990534738     4.280484414
 H       -6.151956038    16.085709565     3.177334969
 H       -0.886892117    17.769719956     2.968878881
 H       -2.182992852    15.996478246     5.151559436
 H        0.939010044    17.762671809     3.847958961
 H        3.083474563    17.686172795     4.984152375
 H        1.316697838    15.170409980     8.064713979
 H       -0.815439850    15.287393693     6.900834191
 H       -7.745687878    12.340230432    -7.777454942
 H       -9.393551787    12.508570878    -8.420441551
 H       -9.507902395    14.800896389    -7.947591226
 H       -8.643514103    14.655795575    -6.425815368
 H       -7.109763044    14.305175127    -9.079230533
 H       -7.538887462    15.929323633    -8.508022000
 H        2.262927570    -1.029597223    -0.045266651
 H        2.275575998     0.475193745     0.908159305
 H        2.260663544     0.547289340    -0.875035440
 H        6.363635671    16.890452568     6.968267943
 H        5.255932587    18.041672126     6.180093736
 H        5.470802688    16.403088499     5.505621888
 H        4.936210739    17.354374300     9.545506208
 C        3.573564374    18.872409359     8.796760852
 C        2.902394933    16.864619869    10.128861552
 H        3.465048466    14.243359654     8.681505338
 C        4.303915176    13.580994666     6.793849714
 C        5.630244112    14.334049370     8.783114982
 H       -8.672857297    19.171838888     0.001404755
 C       -8.058748813    19.738140491     2.008337320
 C       -6.760648947    20.194146860    -0.078757709
 H       -8.403960581    16.635570454     2.563702409
 C       -9.813881674    16.571498639     0.914237482
 C       -8.095815979    14.826522142     1.395687173
 H       -5.123207024    13.951559548     1.832990232
 C       -5.908577614    11.995363384     2.378762715
 C       -3.654598000    12.885990700     3.020474149
 H       -1.932344294    13.588998131     0.571896650
 C       -2.024313011    13.304418743    -1.583219485
 C       -3.195248371    15.112197686    -0.314347897
 H       -1.777702676    -0.911454396    -1.444602842
 C       -0.297175972    -0.175828495    -2.849372032
 C       -0.182727049    -2.368353887    -1.640156485
 H       -0.125700781    -1.937929596     1.512358576
 C       -0.189847778    -0.230826391     2.855179980
 C       -2.140768176    -1.129494148     1.572960132
 H        4.291494507    19.355735699     8.121697799
 H        3.589518404    19.454563757     9.729397751
 H        2.570386604    19.007580813     8.367364350
 H        3.115496465    15.838681851    10.454711830
 H        1.862484425    16.897782667     9.774584187
 H        2.935794164    17.486654402    11.035396246
 H        3.368756575    13.626157567     6.217502199
 H        4.405062415    12.540073257     7.132915330
 H        5.131775808    13.760035520     6.095066890
 H        5.685356248    14.932256819     9.701827943
 H        6.523255391    14.557311084     8.184393025
 H        5.724706056    13.283506106     9.094719548
 H       -8.812079816    19.138925569     2.535641363
 H       -8.473062607    20.754043614     1.933518995
 H       -7.178050593    19.814789697     2.661943066
 H       -6.454811456    19.887622236    -1.088156887
 H       -5.848044614    20.373584665     0.507085565
 H       -7.249270876    21.172824468    -0.189112275
 H      -10.163003304    17.605080818     1.031026387
 H      -10.542223290    15.944191907     1.447907078
 H       -9.901870414    16.307255635    -0.149293726
 H       -7.116896864    14.551272442     1.812209901
 H       -8.142384793    14.438358458     0.368076553
 H       -8.841520364    14.260152899     1.971481030
 H       -6.752743090    11.992243149     1.675977379
 H       -6.306715565    12.345983359     3.341331515
 H       -5.607368426    10.950028973     2.537070899
 H       -2.843787638    13.602188105     2.826589468
 H       -3.199379124    11.897572249     3.172108757
 H       -4.090107277    13.174202049     3.987798774
 H       -1.588976851    12.296464334    -1.599509659
 H       -1.195996007    13.999884632    -1.779234042
 H       -2.704987581    13.386107309    -2.443178552
 H       -3.641607653    15.463418881     0.627862167
 H       -3.923159824    15.287467518    -1.118414362
 H       -2.351750074    15.788702496    -0.513820624
 H       -0.652110280     0.864475004    -2.875607209
 H       -0.767420207    -0.682103792    -3.704330945
 H        0.781613252    -0.162063843    -3.053666261
 H       -0.464954451    -2.975476320    -0.770344197
 H        0.903068848    -2.461060068    -1.774798161
 H       -0.642483862    -2.852114793    -2.514259048
 H        0.897133486    -0.116054084     2.954611601
 H       -0.515897262    -0.826892771     3.719598699
 H       -0.642443517     0.763592322     2.979351320
 H       -2.518767437    -1.694752493     0.711784604
 H       -2.698990562    -0.184104411     1.627737967
 H       -2.426216854    -1.704919808     2.465692407

