187   

Si        0.000000000     0.000000000     0.000000000
 C        1.865393654     0.000000000     0.000000000
 C       -0.682902828     1.709468513     0.000000000
 C        0.142973200     2.820424294     0.197592961
 C       -0.389233636     4.109560107     0.194913184
 C       -1.757549994     4.316872858     0.002306400
 C       -2.584332778     3.202702204    -0.193442361
 C       -2.055405856     1.915223508    -0.196303640
 C       -2.357528541     5.646403612    -0.008112303
 C       -1.675525231     6.791461356     0.162506502
 C       -2.274117787     8.121286798     0.152313059
 C       -1.440244376     9.231296694     0.343589842
 C       -1.964413789    10.519918414     0.342083487
 C       -3.333258808    10.728913366     0.124699771
 C       -4.165328692     9.624683480    -0.075683459
 C       -3.638699119     8.333022528    -0.059184837
Si       -3.991395957    12.442232533     0.129256874
 C       -5.817380401    12.446317817     0.204812720
 C       -6.646188464    13.129045923    -0.595291525
 C       -8.106833283    13.088103395    -0.480673649
 C       -8.882073726    13.843937836    -1.372731812
 C      -10.266415386    13.832973251    -1.298217863
 C      -10.912229507    13.053877663    -0.321343361
 C      -10.147378060    12.259393736     0.539406526
 C       -8.761356313    12.246602111     0.422575311
 N      -12.340356647    13.092773373    -0.305586217
 C      -12.875371670    14.374972356     0.208007346
 C      -12.984603203    11.919592864     0.311823844
 C      -12.590868575    14.667177122     1.695411656
 C      -11.460942120    15.700173218     1.886634272
 N      -10.822237282    15.674745854     3.226245527
 C      -10.052945976    14.476953217     3.397968787
 C       -8.769199262    14.481120261     2.826585474
 C       -7.960605062    13.362649559     2.946893593
 C       -8.376998625    12.246016990     3.689405636
 C       -9.642683345    12.265553155     4.278291941
 C      -10.480422203    13.368251430     4.135559257
 C      -11.769270366    15.959808941     4.318399129
 C       -7.481615093    11.089662392     3.783574857
 C       -7.773159996     9.972601366     4.462787538
Si       -6.665674981     8.523692083     4.588120085
 C       -4.886076917     8.966135837     4.501096402
 C       -4.355956319     9.999790376     5.282617437
 C       -3.002042514    10.320214020     5.201918060
 C       -2.147523596     9.613002441     4.346231450
 C       -2.679728031     8.578026614     3.573536636
 C       -4.031822289     8.254939957     3.651352327
 C       -0.734534258     9.971643352     4.283457082
 C        0.158434241     9.350905453     3.493909317
 C        1.575325511     9.681069066     3.404884888
 C        2.160920186    10.704776787     4.153244366
 C        3.522328465    10.984415751     4.034436286
 C        4.326794000    10.244036421     3.162666788
 C        3.740492469     9.217916200     2.409228425
 C        2.381607037     8.942327187     2.528041606
Si        6.124741567    10.599203364     2.993248114
 C        6.735803203    11.718705809     4.354370648
 C        7.066461691     8.945299918     3.028208402
 C        6.443059639    11.442703749     1.316508926
 C       -7.003309313     7.625408578     6.228386423
 C       -7.125299432     7.362918448     3.146760270
 C       -3.355289658    13.338942284     1.682762359
 C       -3.376017836    13.362952550    -1.415428940
 C       -0.660914885    -0.898473696    -1.542231332
 C       -0.601362691    -0.928543307     1.549357286
 H        1.220321032     2.720292881     0.356056922
 H        0.276165074     4.957678329     0.348080848
 H       -3.652864729     3.342223316    -0.346424256
 H       -2.748690570     1.084845072    -0.358238400
 H       -3.439449200     5.659725588    -0.168150421
 H       -0.593115416     6.776719564     0.320113477
 H       -0.371813281     9.090104097     0.499078650
 H       -1.268136497    11.346082603     0.517923133
 H       -5.239838443     9.734293128    -0.254833208
 H       -4.304575589     7.486899970    -0.216987614
 H       -6.212428040    11.798185817     1.008157411
 H       -6.292869358    13.781104774    -1.403234695
 H       -8.393052988    14.457546278    -2.128327000
 H      -10.862488771    14.413470256    -1.998997601
 H      -10.621903603    11.645678571     1.300393510
 H       -8.186834013    11.576789194     1.067294105
 H      -14.063631370    11.952606090     0.081979631
 H      -12.864649441    11.846762039     1.403616465
 H      -12.579854787    11.000776387    -0.148052076
 H      -12.164667556    16.980626074     4.176706639
 H      -11.223897593    15.948354323     5.278460103
 H      -12.618809290    15.265469308     4.390672162
 H       -8.429391156    15.358341583     2.277525458
 H       -6.971867687    13.372203732     2.481450105
 H       -9.989492375    11.410761106     4.858334759
 H      -11.462521899    13.358902501     4.597823794
 H       -6.526487471    11.231616976     3.257032162
 H       -8.735770665     9.854441846     4.983237627
 H       -4.979137074    10.587282965     5.963412278
 H       -2.605948850    11.127613702     5.814150999
 H       -2.042427093     8.014422264     2.890836114
 H       -4.380253579     7.432864128     3.018389874
 H       -0.435594657    10.798861489     4.931143669
 H       -0.155705772     8.521074963     2.850955158
 H        1.555918313    11.293874824     4.839907740
 H        3.925497668    11.795206705     4.647416672
 H        4.321370631     8.606626522     1.712889495
 H        1.944399111     8.140471931     1.935709776
 H      -12.472416995    15.190003759    -0.433987984
 H      -13.974347781    14.362648992     0.029227524
 H      -13.511294371    15.024016414     2.189233887
 H      -12.319042053    13.727261250     2.215991455
 H      -10.659279854    15.529529184     1.129849919
 H      -11.843072839    16.729338957     1.717236369
 H        2.262963131    -1.030346533    -0.027820732
 H        2.273952321     0.489821314     0.901347579
 H        2.262525458     0.532170782    -0.883349991
 H        7.822422166    11.896979153     4.265709533
 H        6.553271879    11.269859783     5.347736899
 H        6.234499750    12.702134778     4.331291121
 H        6.679924987     8.351186004     2.149625104
 C        8.588087922     9.101254658     2.858133997
 C        6.784471999     8.133482871     4.305369733
 H        7.544234832    11.688322411     1.302309463
 C        6.140331004    10.542681338     0.105183652
 C        5.658081749    12.758269665     1.160912302
 H       -8.095445419     7.343392468     6.211136883
 C       -6.178772333     6.335609695     6.383651662
 C       -6.763994738     8.523284038     7.455375242
 H       -6.409198124     6.493145919     3.203870126
 C       -8.555341966     6.803300424     3.251230682
 C       -6.958678529     8.041057163     1.774843365
 H       -2.229330904    13.289314996     1.627703967
 C       -3.768315699    14.820054988     1.740700321
 C       -3.799157730    12.645242305     2.980121980
 H       -3.891424984    14.367016037    -1.401813186
 C       -1.857401696    13.611861928    -1.423067267
 C       -3.764820338    12.642294358    -2.719408714
 H       -1.785645385    -0.891774163    -1.444735202
 C       -0.298120059    -0.170047851    -2.849022363
 C       -0.204863384    -2.364940981    -1.641844407
 H       -0.087538822    -1.932878636     1.518736682
 C       -0.191230272    -0.222011663     2.854589672
 C       -2.120522138    -1.173321625     1.578548443
 H        8.871604554     9.610193832     1.927795186
 H        9.065056682     8.110848231     2.824023091
 H        9.059265937     9.639705758     3.691168772
 H        5.715145428     7.934158858     4.465518867
 H        7.170548231     8.614552436     5.213882751
 H        7.273747534     7.150980495     4.243592179
 H        6.724416079     9.613755496     0.095281022
 H        6.390136893    11.071095967    -0.826569659
 H        5.077293546    10.274519811     0.027986941
 H        5.882939385    13.495493335     1.942442562
 H        4.569120255    12.607083682     1.149536640
 H        5.911811820    13.237518874     0.204436636
 H       -6.362016139     5.601854450     5.588145985
 H       -6.435914943     5.835081352     7.328221587
 H       -5.095395402     6.521766859     6.421204171
 H       -7.348996260     9.452674441     7.438243565
 H       -5.706583350     8.795950608     7.583986971
 H       -7.056072590     7.992372040     8.372655766
 H       -8.732682643     6.226273082     4.167417285
 H       -8.750359869     6.114932735     2.416273632
 H       -9.326664448     7.583485702     3.190927070
 H       -5.950004012     8.447725599     1.606688998
 H       -7.675202167     8.860472387     1.616442383
 H       -7.138264876     7.314419264     0.970625076
 H       -3.405625381    15.407425131     0.888184738
 H       -3.346380826    15.291528853     2.639921081
 H       -4.857079157    14.960047499     1.802997943
 H       -3.561434675    11.569445657     3.007014884
 H       -4.873702407    12.752457131     3.181134943
 H       -3.280180400    13.087939316     3.842021325
 H       -1.504856329    14.188527009    -0.558271009
 H       -1.576995515    14.193206963    -2.313408381
 H       -1.271753603    12.682929555    -1.470484456
 H       -4.844655223    12.466984350    -2.819873470
 H       -3.263429360    11.670474080    -2.834540090
 H       -3.467645020    13.245910991    -3.588308394
 H       -0.644594729     0.873070216    -2.874725293
 H       -0.772636419    -0.671601671    -3.704506245
 H        0.780743330    -0.165478981    -3.053099253
 H       -0.494256085    -2.970355755    -0.773171433
 H        0.880209608    -2.468030414    -1.774960016
 H       -0.668020069    -2.843050930    -2.517296399
 H        0.893055607    -0.083492875     2.954383781
 H       -0.505262116    -0.820636666     3.721709762
 H       -0.664304977     0.763404487     2.973878000
 H       -2.488734093    -1.736662131     0.711937407
 H       -2.701014980    -0.242859950     1.649037209
 H       -2.387337798    -1.766987583     2.465221792

