187   

Si        0.000000000     0.000000000     0.000000000
 C        1.865252979     0.000000000     0.000000000
 C       -0.678704008     1.711122219     0.000000000
 C        0.111997913     2.798906973    -0.384058596
 C       -0.410592439     4.092060509    -0.381019679
 C       -1.734589240     4.326693218    -0.001032568
 C       -2.527202242     3.235091281     0.378317459
 C       -2.008233317     1.943345819     0.377263343
 C       -2.324280483     5.661265905     0.017650144
 C       -1.676826055     6.789340877    -0.320287777
 C       -2.268402245     8.123183519    -0.300933842
 C       -1.477384638     9.216600069    -0.678946277
 C       -1.998787305    10.507566683    -0.676006311
 C       -3.328871283    10.734389372    -0.300294699
 C       -4.120301294     9.645174947     0.077978589
 C       -3.592751047     8.354321174     0.080733303
Si       -4.020279182    12.436693228    -0.295244932
 C       -5.845473565    12.372636319    -0.280488323
 C       -6.667234766    13.032433284     0.546119221
 C       -8.127470202    12.924065897     0.489913243
 C       -8.904645179    13.656575610     1.400876491
 C      -10.287597022    13.582352678     1.381472036
 C      -10.943834661    12.804846739     0.403664425
 C      -10.168993888    12.072116880    -0.510031478
 C       -8.781155829    12.118208609    -0.444513482
 N      -12.355909725    12.754263704     0.416738354
 C      -13.050823888    14.058206084     0.483859886
 C      -12.989656578    11.811239172    -0.519836901
 C      -12.431766855    15.202843017    -0.336410431
 C      -12.260707011    14.859107069    -1.827079106
 N      -11.579401164    15.921024607    -2.602145668
 C      -10.334483373    16.324282384    -2.047004972
 C       -9.366840748    15.328720690    -1.806965314
 C       -8.137651856    15.666601741    -1.267655445
 C       -7.803467310    17.003955132    -1.007520920
 C       -8.753442779    17.990504453    -1.276483751
 C      -10.004582083    17.663270385    -1.790546265
 C      -12.496760437    17.007163501    -2.988718553
 C       -6.487662116    17.298719551    -0.436307325
 C       -6.057923938    18.533241642    -0.146013898
Si       -4.432279235    18.965689679     0.565928604
 C       -4.670908951    20.078281514     2.010883453
 C       -5.882298658    20.064541014     2.710763487
 C       -6.074386707    20.903471151     3.807489325
 C       -5.058344531    21.762199106     4.236734535
 C       -3.843839279    21.768168945     3.537924623
 C       -3.650543588    20.936433269     2.437838374
 C       -5.215648455    22.656688258     5.378930131
 C       -6.325597704    22.747806538     6.131027813
 C       -6.484851527    23.641512691     7.273436808
 C       -5.474187056    24.506037805     7.701655547
 C       -5.669942508    25.343837796     8.799603618
 C       -6.881118862    25.329534921     9.498270466
 C       -7.896127781    24.462439965     9.071475442
 C       -7.699851350    23.631649742     7.971995619
Si       -7.156159504    26.428589933    10.949372125
 C       -5.564886008    27.209650598    11.530620608
 C       -8.377666427    27.810184086    10.477897129
 C       -7.927039379    25.388605190    12.344840332
 C       -3.545397239    17.404806381     1.201804151
 C       -3.363995210    19.790411626    -0.769592442
 C       -3.353242216    13.409683606     1.191814571
 C       -3.489225990    13.330656833    -1.891990552
 C       -0.621085716    -0.916834503    -1.548036867
 C       -0.651213596    -0.911615562     1.539525607
 H        1.154514452     2.677954575    -0.691042605
 H        0.226922089     4.922030656    -0.680186118
 H       -3.561337013     3.395696222     0.677399038
 H       -2.674423896     1.131577265     0.682527408
 H       -3.370234935     5.694339198     0.336919022
 H       -0.631051203     6.756967111    -0.639373490
 H       -0.443168202     9.057879746    -0.978182637
 H       -1.334582162    11.321845692    -0.978523654
 H       -5.164428997     9.764857215     0.385193270
 H       -4.227165226     7.523019151     0.383076553
 H       -6.248665521    11.710097112    -1.066577809
 H       -6.308736539    13.704621726     1.335871373
 H       -8.414862751    14.288582752     2.142975046
 H      -10.872255287    14.126907254     2.118303826
 H      -10.637121790    11.462400073    -1.275981413
 H       -8.202410767    11.525074496    -1.154794340
 H      -14.064839920    11.734392458    -0.281293076
 H      -12.562226907    10.803335125    -0.368370563
 H      -12.886119059    12.086382628    -1.580887402
 H      -13.354388514    16.574569349    -3.532026810
 H      -11.981230838    17.683659596    -3.693923742
 H      -12.881236276    17.597728967    -2.143183728
 H       -9.591624722    14.286356013    -2.028889187
 H       -7.410182342    14.875685552    -1.065238461
 H       -8.522438322    19.038274378    -1.081312754
 H      -10.720849538    18.457633219    -1.973339655
 H       -5.882659718    16.398547560    -0.259218391
 H       -6.690358354    19.414952427    -0.343349056
 H       -6.711602847    19.409953951     2.422343905
 H       -7.028123330    20.880922534     4.331543658
 H       -3.040510303    22.430048081     3.855789288
 H       -2.684018214    20.986096926     1.929349399
 H       -4.341598556    23.276645715     5.598774245
 H       -7.199429201    22.127548113     5.910848134
 H       -4.520547499    24.533305290     7.177685829
 H       -4.843092934    25.999604607     9.086157460
 H       -8.863135478    24.407409242     9.579473270
 H       -8.500373456    22.966151802     7.654685171
 H      -14.114004093    13.917502214     0.190462474
 H      -13.066696746    14.353456794     1.561713651
 H      -13.055083851    16.109027849    -0.225293424
 H      -11.441507538    15.473214448     0.090359988
 H      -11.653793897    13.929968836    -1.939681893
 H      -13.244245024    14.648335998    -2.296626773
 H        2.262622171    -1.029188721     0.056609038
 H        2.260156370     0.556852231     0.869322784
 H        2.276366167     0.465258837    -0.912803075
 H       -5.732619943    27.836404134    12.424701559
 H       -5.116604922    27.852743742    10.753164927
 H       -4.821170106    26.438205367    11.801230145
 H       -8.451105120    28.474741755    11.386906150
 C       -7.874377614    28.665106375     9.300306670
 C       -9.791399924    27.299634888    10.146697887
 H       -8.900028519    24.991095971    11.932888647
 C       -7.052758810    24.182157757    12.732235077
 C       -8.249280393    26.201942807    13.611084252
 H       -3.553682352    16.665359803     0.348351179
 C       -2.079911645    17.652184366     1.598692083
 C       -4.284878869    16.774417755     2.396412919
 H       -2.368246546    20.007496656    -0.285130107
 C       -3.113975791    18.877980141    -1.983929508
 C       -3.955639532    21.125137722    -1.256383417
 H       -3.890086121    14.404737218     1.169680052
 C       -3.664265154    12.724967458     2.534346293
 C       -1.841102929    13.685718971     1.116507436
 H       -2.361843992    13.359747917    -1.869142852
 C       -3.919233060    12.567547119    -3.157580585
 C       -4.002241279    14.777774676    -1.983901543
 H       -0.139962440    -1.936731254    -1.513845106
 C       -2.147987879    -1.109968757    -1.573181379
 C       -0.189156498    -0.228400835    -2.855737373
 H       -1.775866664    -0.919456068     1.443018087
 C       -0.177521337    -2.373011332     1.633361668
 C       -0.296032809    -0.184332929     2.849052332
 H       -6.902836660    29.139649727     9.489155638
 H       -8.581460948    29.482652839     9.099120300
 H       -7.789629252    28.094795925     8.364042104
 H      -10.255768691    26.737042232    10.966374613
 H       -9.816678137    26.669012210     9.246862714
 H      -10.458814428    28.149655811     9.942570649
 H       -6.824287906    23.521605875    11.883508625
 H       -7.575310461    23.560057689    13.472808526
 H       -6.098505579    24.473084638    13.191064036
 H       -8.931086838    27.042104585    13.426421135
 H       -7.352687359    26.600634790    14.103982276
 H       -8.747036222    25.559891644    14.352406703
 H       -1.460972341    18.024179064     0.772459481
 H       -1.616640979    16.710165617     1.928097963
 H       -1.975682124    18.353429499     2.438343810
 H       -5.318850701    16.482696493     2.165184008
 H       -4.318080107    17.434290877     3.275422287
 H       -3.766395467    15.861333732     2.725293537
 H       -2.621571374    17.931692212    -1.724503826
 H       -2.453077285    19.381762231    -2.703458068
 H       -4.035957274    18.635716533    -2.532296930
 H       -4.122366985    21.849483204    -0.446802396
 H       -4.906958457    21.001699878    -1.792343707
 H       -3.265490409    21.608429343    -1.962533076
 H       -4.733865612    12.530353079     2.692895822
 H       -3.338266473    13.361596438     3.369081757
 H       -3.137314859    11.767595374     2.656497434
 H       -1.546770747    14.263939603     0.231251373
 H       -1.236191907    12.768589163     1.136770507
 H       -1.523766412    14.276900337     1.988343287
 H       -3.561617723    11.529012288    -3.185642724
 H       -3.504551973    13.055603008    -4.051182306
 H       -5.009264244    12.548108475    -3.296054456
 H       -3.649602437    15.415578240    -1.162479648
 H       -5.099743111    14.844497834    -2.016587327
 H       -3.643087931    15.247219336    -2.911195026
 H       -2.529167485    -1.680345031    -0.716723922
 H       -2.440319476    -1.673957279    -2.470920207
 H       -2.698046652    -0.159230026    -1.617245792
 H        0.898807490    -0.123229201    -2.955048500
 H       -0.633249486     0.769867557    -2.979389331
 H       -0.520239814    -0.821076017    -3.720567110
 H       -0.455092990    -2.977291675     0.760119820
 H       -0.639060812    -2.861652242     2.503839051
 H        0.908096758    -2.463310087     1.771343833
 H       -0.652505148     0.855326677     2.878632861
 H        0.782887800    -0.169416071     3.052838020
 H       -0.764946593    -0.694115723     3.702711598

