187   

Si        0.000000000     0.000000000     0.000000000
 C        1.865799918     0.000000000     0.000000000
 C       -0.676689782     1.711903824     0.000000000
 C        0.164355509     2.822894912     0.116425049
 C       -0.361977304     4.114610175     0.114993864
 C       -1.738966700     4.325203940     0.006933758
 C       -2.580767485     3.210713868    -0.108661842
 C       -2.057836693     1.920663586    -0.115838111
 C       -2.333080319     5.658007058     0.001194781
 C       -1.638530172     6.804492271     0.096938965
 C       -2.229516487     8.138596387     0.091503979
 C       -3.606435064     8.352793257    -0.016431599
 C       -4.128302626     9.645980560    -0.017441431
 C       -3.279328587    10.753656526     0.070161259
 C       -1.898158675    10.543323423     0.174308884
 C       -1.382140396     9.250278313     0.190062962
Si       -3.937727933    12.471394330     0.071195200
 C       -2.712071633    13.586156666    -0.698887648
 C       -2.262324523    14.739851774    -0.188387424
 C       -1.276520813    15.596889856    -0.849917310
 C       -0.877419596    16.785498488    -0.221351607
 C        0.052133845    17.628858146    -0.807618660
 C        0.581802893    17.332617780    -2.081888606
 C        0.180857250    16.141814084    -2.713949234
 C       -0.716117989    15.283273767    -2.090794350
 N        1.527108837    18.207230996    -2.657560784
 C        1.270934877    19.650213435    -2.472482548
 C        1.976363771    17.882252697    -4.022924368
 C       -0.110340693    20.091008875    -2.990750116
 C       -0.170846645    21.584017849    -3.353437798
 N        0.754664443    22.025739126    -4.422165944
 C        0.973003855    21.100027304    -5.465281880
 C       -0.155082021    20.541174710    -6.103860389
 C        0.006706193    19.629010834    -7.132084899
 C        1.285315814    19.267528724    -7.584700533
 C        2.397931975    19.844320970    -6.969245538
 C        2.252876794    20.757493273    -5.930308051
 C        1.934057154    22.742562452    -3.911302816
 C        1.398155302    18.297565330    -8.675878441
 C        2.562208801    17.878794199    -9.188436920
Si        2.759705501    16.672637816   -10.547449652
 C        3.898710978    17.346521896   -11.823539948
 C        4.117318922    18.724785850   -11.919324158
 C        4.980850604    19.238000376   -12.886509925
 C        5.633997356    18.388771370   -13.783887902
 C        5.407591311    17.009002459   -13.689578358
 C        4.549754050    16.492243792   -12.722286527
 C        6.545624401    18.880755542   -14.811618021
 C        6.849300825    20.174818685   -15.009343026
 C        7.760940170    20.666630670   -16.037109896
 C        8.417644553    19.817563303   -16.931458020
 C        9.281303752    20.330911901   -17.899064482
 C        9.502064619    21.708232781   -17.996811207
 C        8.843625718    22.562238163   -17.101448086
 C        7.986277721    22.046506172   -16.133681082
Si       10.638631326    22.402064516   -19.267978269
 C       11.093982055    21.126785129   -20.550942557
 C        9.775225425    23.884859316   -20.092173871
 C       12.231313606    23.018645886   -18.427323200
 C        3.488294678    15.072819215    -9.818274906
 C        1.088216543    16.266860711   -11.357926996
 C       -5.547793119    12.556840664    -0.939460875
 C       -4.318434619    12.981397458     1.862956220
 C       -0.666448155    -0.891110137    -1.543767572
 C       -0.592882027    -0.934947028     1.549004163
 H        1.249301268     2.721775948     0.208409051
 H        0.315108318     4.962477810     0.202302892
 H       -3.656262782     3.352476712    -0.196061469
 H       -2.762960830     1.090616201    -0.216094179
 H       -3.423016879     5.673026208    -0.089016169
 H       -0.548245320     6.788257659     0.187529676
 H       -4.285905851     7.506552018    -0.096480757
 H       -5.213670751     9.751046672    -0.095168430
 H       -1.188579397    11.374807108     0.244852719
 H       -0.306923883     9.104620526     0.276161863
 H       -2.353964176    13.221167127    -1.676598241
 H       -2.601232384    15.135460884     0.777630208
 H       -1.293614822    17.046682306     0.751725842
 H        0.372276981    18.522364361    -0.279486919
 H        0.565599627    15.874871292    -3.693754739
 H       -0.996821155    14.357281144    -2.595561991
 H        2.744560887    18.605950486    -4.347522806
 H        1.168830868    17.899440474    -4.774451060
 H        2.452966370    16.886051146    -4.022865049
 H        1.593639864    23.583845360    -3.281256930
 H        2.489161460    23.188295721    -4.756422045
 H        2.624798735    22.121863047    -3.319105055
 H       -1.152939199    20.836069279    -5.787488312
 H       -0.875641049    19.196473172    -7.605407604
 H        3.402850677    19.584705006    -7.306722288
 H        3.141764762    21.184016513    -5.476477075
 H        0.425230464    17.944549703    -9.042087072
 H        3.523499205    18.248869913    -8.793744447
 H        3.628607936    19.438159016   -11.247588869
 H        5.139688600    20.313634083   -12.938352291
 H        5.906400454    16.330932910   -14.379306153
 H        4.412658620    15.407795555   -12.695114194
 H        6.988055886    18.102930648   -15.440849138
 H        6.406246818    20.952882829   -14.380627260
 H        8.260093110    18.741836965   -16.879227330
 H        9.766805264    19.616849407   -18.569983353
 H        8.976735453    23.647416793   -17.131383028
 H        7.484648263    22.725504224   -15.446668883
 H        1.378858500    19.889804982    -1.391487608
 H        2.083194978    20.208485540    -2.989247964
 H       -0.389798315    19.475397744    -3.870385406
 H       -0.885739302    19.864410905    -2.233051688
 H       -1.201621389    21.831656989    -3.706719181
 H       -0.001492440    22.200458831    -2.444137571
 H        2.263588499    -1.030387886    -0.018949279
 H        2.273097554     0.497423321     0.897804108
 H        2.263873613     0.524516163    -0.887423435
 H       11.741881750    21.562193734   -21.332610898
 H       10.192435323    20.729170010   -21.051431760
 H       11.636674925    20.274276302   -20.106274268
 H        9.577511880    24.626762538   -19.264557118
 C       10.639137795    24.585049352   -21.156136823
 C        8.420466965    23.504815168   -20.716611074
 H       12.900289007    23.371487347   -19.264733830
 C       12.006257928    24.200763732   -17.467685328
 C       12.967259988    21.899876404   -17.667296906
 H        3.559349735    14.343519289   -10.676245372
 C        4.903709626    15.275639429    -9.248895050
 C        2.595283322    14.446812692    -8.732655110
 H        0.403255570    15.954503395   -10.517191804
 C        0.464182619    17.487502226   -12.058650906
 C        1.164505965    15.105372621   -12.364833685
 H       -6.274833731    11.862367333    -0.427382967
 C       -6.170009607    13.964299729    -0.960636493
 C       -5.363121801    12.069511509    -2.387760483
 H       -4.625033236    14.066434755     1.819141752
 C       -5.477536888    12.183459843     2.486658259
 C       -3.088319516    12.866291795     2.781754215
 H       -1.791203075    -0.873069479    -1.447334900
 C       -0.295421716    -0.165410246    -2.849805132
 C       -0.224067251    -2.361711252    -1.643889836
 H       -0.061059110    -1.930073400     1.521050007
 C       -0.198236045    -0.219143718     2.854034526
 C       -2.107130552    -1.208277328     1.576879719
 H       11.597329916    24.951713167   -20.765822531
 H       10.110140585    25.465828330   -21.548477999
 H       10.853459094    23.945592547   -22.022653978
 H        7.725040752    23.046555283   -19.998797596
 H        8.517459417    22.817665337   -21.567550064
 H        7.916681661    24.403329867   -21.100563092
 H       11.554636346    25.075813833   -17.951820304
 H       12.969086148    24.540321171   -17.058548415
 H       11.383816086    23.934437025   -16.601840155
 H       13.242982785    21.048596763   -18.302871174
 H       12.388240888    21.507677773   -16.818802790
 H       13.906840736    22.285522911   -17.246132897
 H        5.613261938    15.685854975    -9.981424513
 H        5.321161837    14.311291904    -8.925602006
 H        4.920966458    15.930166658    -8.366756858
 H        1.589181876    14.192336706    -9.090184662
 H        2.481953658    15.089776333    -7.847886677
 H        3.040283389    13.506906416    -8.375605294
 H        0.336695270    18.356911092   -11.399361477
 H       -0.537258601    17.235711045   -12.435064399
 H        1.045640185    17.820555933   -12.930762827
 H        1.505973078    14.162738046   -11.918589086
 H        1.812641379    15.325689108   -13.224872246
 H        0.166366874    14.902796809   -12.780094985
 H       -6.414341895    14.347462152     0.038438473
 H       -7.114022484    13.950265240    -1.523704818
 H       -5.528454605    14.708146330    -1.454612008
 H       -4.953435926    11.052045509    -2.457443434
 H       -4.714906083    12.729159506    -2.981099068
 H       -6.333305949    12.045757706    -2.903888152
 H       -6.426428501    12.300157571     1.947966570
 H       -5.663688640    12.531224087     3.513183961
 H       -5.264805341    11.107650990     2.563212528
 H       -2.221419749    13.442394785     2.430344725
 H       -2.757393219    11.826771981     2.920842766
 H       -3.328318308    13.249083325     3.783586065
 H       -0.631865989     0.881040256    -2.874952307
 H       -0.774276777    -0.661683572    -3.705913483
 H        0.783552704    -0.171258575    -3.053036619
 H       -0.519866623    -2.965041727    -0.775933497
 H        0.860170772    -2.474682715    -1.775812174
 H       -0.690631442    -2.834915891    -2.520156805
 H        0.883133186    -0.060400290     2.955541437
 H       -0.502881466    -0.822011867     3.721459091
 H       -0.689296657     0.757794995     2.970509726
 H       -2.467063818    -1.765508216     0.702896177
 H       -2.704246381    -0.289806501     1.662430091
 H       -2.360990486    -1.819675442     2.455264343

