187   

Si        0.000000000     0.000000000     0.000000000
 C        1.865156780     0.000000000     0.000000000
 C       -0.675629659     1.712631243     0.000000000
 C        0.112933999     2.793034365    -0.408995705
 C       -0.402985116     4.088656711    -0.407380084
 C       -1.718143727     4.333681900    -0.003661079
 C       -2.508629186     3.249620530     0.400467246
 C       -1.996353580     1.955011292     0.400464021
 C       -2.298999490     5.672248578     0.013857234
 C       -1.649047852     6.791494804    -0.347755332
 C       -2.226157190     8.131541818    -0.331671748
 C       -3.541228017     8.381645935     0.071354428
 C       -4.051586519     9.679010945     0.070899957
 C       -3.252125327    10.756008621    -0.327192479
 C       -1.934691552    10.509543028    -0.732295265
 C       -1.431036210     9.211168117    -0.737685073
Si       -3.918398639    12.469429923    -0.330313917
 C       -2.541449786    13.672627185    -0.326677940
 C       -2.409508350    14.712868933    -1.159452958
 C       -1.287999419    15.654640136    -1.122066699
 C       -1.260852978    16.708163792    -2.049562189
 C       -0.223130105    17.625196731    -2.056059887
 C        0.809482315    17.531944988    -1.101216545
 C        0.787902470    16.479962837    -0.175085728
 C       -0.241769521    15.544612687    -0.204100258
 N        1.845109622    18.504093191    -1.162150025
 C        1.378982820    19.888477825    -0.918417697
 C        3.067147764    18.180892583    -0.404652592
 C        0.699981706    20.106391766     0.445606318
 C       -0.834412935    19.986620701     0.347853284
 N       -1.483314645    19.660229923     1.630127177
 C       -1.254936868    20.550178906     2.695920882
 C       -1.186213427    21.936888899     2.437860700
 C       -0.962443907    22.831889433     3.470246611
 C       -0.846457580    22.393986264     4.798001967
 C       -0.946240696    21.024647038     5.055314419
 C       -1.155025854    20.111304210     4.029185017
 C       -1.448714090    18.221226119     1.938339786
 C       -0.610103291    23.385790925     5.847605098
 C       -0.481524926    23.094134355     7.149179576
Si       -0.186293944    24.347856610     8.447185389
 C       -0.933879283    25.968332868     7.999434656
 C       -2.152369866    25.995148957     7.307348413
 C       -2.738427574    27.208103889     6.957168977
 C       -2.129896145    28.423447965     7.298656482
 C       -0.919027812    28.393671107     7.995478573
 C       -0.327235756    27.179810316     8.344525515
 C       -2.784062336    29.667959877     6.908758963
 C       -2.309249260    30.898007610     7.168413057
 C       -2.966447848    32.140619946     6.776792078
 C       -4.177269673    32.165421999     6.080051177
 C       -4.771494109    33.376281807     5.725000644
 C       -4.168242814    34.591244703     6.064650094
 C       -2.953745440    34.569287944     6.763843474
 C       -2.360864985    33.359046919     7.112649879
Si       -4.939979205    36.197486834     5.603249339
 C       -6.695187481    35.971032486     5.013392245
 C       -4.900009320    37.337715596     7.126992998
 C       -3.929236949    37.010445989     4.209963825
 C       -0.974222387    23.737063346    10.067228800
 C        1.688594760    24.532811108     8.711792622
 C       -5.032966808    12.703289563    -1.852797720
 C       -4.957936810    12.752759531     1.238055975
 C       -0.623841366    -0.914264000    -1.548265612
 C       -0.651879058    -0.912323987     1.538668411
 H        1.148776129     2.664327885    -0.735139451
 H        0.232804204     4.912423358    -0.726901030
 H       -3.535944219     3.418130800     0.717893502
 H       -2.660672171     1.149299920     0.725069772
 H       -3.338230108     5.716076026     0.352273359
 H       -0.609679605     6.746062540    -0.686571970
 H       -4.180145209     7.560019113     0.389521652
 H       -5.087502312     9.813145953     0.394347420
 H       -1.267129677    11.314137659    -1.057406365
 H       -0.405963397     9.036905376    -1.059655930
 H       -1.793338575    13.474190344     0.459459862
 H       -3.139402548    14.941435658    -1.946922331
 H       -2.061118178    16.801282479    -2.784244507
 H       -0.192107973    18.414066292    -2.804833197
 H        1.570904407    16.382229760     0.571172289
 H       -0.229736290    14.722868325     0.513719646
 H        3.860692012    18.890880614    -0.698104460
 H        3.418149816    17.172919120    -0.687428884
 H        2.951227192    18.223572856     0.689457857
 H       -1.669393247    17.636900844     1.025211010
 H       -2.244007723    17.986070565     2.668048304
 H       -0.479819529    17.875615039     2.331992289
 H       -1.306826438    22.309089040     1.424525802
 H       -0.891020575    23.897127476     3.246194573
 H       -0.861028354    20.657414325     6.078935464
 H       -1.224888292    19.056188022     4.272887405
 H       -0.556031562    24.414808267     5.462897092
 H       -0.531685161    22.056738950     7.511076068
 H       -2.674349396    25.076738602     7.016771685
 H       -3.681672373    27.209283414     6.414076191
 H       -0.425905251    29.323169557     8.273227070
 H        0.619563576    27.220569519     8.889629228
 H       -3.726716422    29.538634859     6.368535859
 H       -1.367286423    31.028818203     7.708777549
 H       -4.669461065    31.233748955     5.807029737
 H       -5.718658395    33.331356895     5.180409979
 H       -2.436914923    35.487603078     7.056705088
 H       -1.416959181    33.362249704     7.654425420
 H        2.259370478    20.562806022    -1.018602024
 H        0.692288500    20.167541174    -1.748693199
 H        1.086599641    19.379387709     1.185062497
 H        0.969669614    21.098345824     0.854630709
 H       -1.273812922    20.933847427    -0.037993257
 H       -1.120775576    19.203105557    -0.391842243
 H        2.262949478    -1.028598333     0.064428811
 H        2.260101605     0.563575715     0.864970513
 H        2.276162331     0.458297424    -0.916413486
 H       -7.164573701    36.942802445     4.777643257
 H       -7.314040553    35.483451989     5.788424217
 H       -6.743466063    35.349048822     4.102463591
 H       -3.809856970    37.459542587     7.393682034
 C       -5.479477510    38.738414428     6.860838930
 C       -5.615653257    36.721236724     8.342545033
 H       -4.493452172    37.947095799     3.931482574
 C       -2.507571270    37.419819578     4.634544955
 C       -3.832516851    36.121001376     2.956821556
 H       -0.478422667    22.751542606    10.303050439
 C       -0.734288908    24.689338870    11.251748669
 C       -2.486471536    23.488451348     9.923549026
 H        1.815618166    25.293541395     9.535177954
 C        2.369188544    23.228044475     9.163165913
 C        2.405957765    25.060166880     7.455998643
 H       -5.327946227    13.792606563    -1.857331921
 C       -4.296860011    12.398471398    -3.170261165
 C       -6.321296416    11.862921131    -1.801473372
 H       -5.813874041    12.019758044     1.180024802
 C       -4.170514068    12.461508708     2.528001170
 C       -5.548898164    14.171070699     1.319304412
 H       -0.145285655    -1.935455235    -1.515329630
 C       -2.151302123    -1.103004858    -1.571926955
 C       -0.191322887    -0.226308573    -2.855988113
 H       -1.776600479    -0.918576362     1.442145709
 C       -0.180579331    -2.374611221     1.630725404
 C       -0.295531444    -0.187233010     2.849080095
 H       -4.970682976    39.272297193     6.047820533
 H       -5.369172555    39.366475880     7.756915835
 H       -6.552712094    38.720989501     6.629325180
 H       -5.216086275    35.737570668     8.628357589
 H       -6.697359971    36.607518180     8.191956969
 H       -5.492203837    37.369671227     9.221697592
 H       -2.489214376    38.121606623     5.477932691
 H       -1.999505674    37.928347901     3.802101539
 H       -1.876477694    36.559035004     4.896863413
 H       -4.809857878    35.850241001     2.537113410
 H       -3.278139214    35.188577303     3.136785916
 H       -3.292195421    36.650872612     2.159268113
 H        0.328226188    24.845512388    11.477540674
 H       -1.184362291    24.274439169    12.165219729
 H       -1.194133266    25.677436809    11.106387953
 H       -2.737355636    22.771936073     9.129413303
 H       -3.054306991    24.410126438     9.730782393
 H       -2.890092823    23.069178670    10.855973682
 H        1.966393637    22.828792764    10.102650692
 H        3.439963091    23.404829054     9.339765584
 H        2.310688843    22.432206311     8.407543413
 H        2.012417514    26.021680569     7.098302221
 H        2.364488792    24.354161989     6.613719830
 H        3.471418148    25.223469959     7.669745598
 H       -3.379728170    12.986826766    -3.309446967
 H       -4.945126854    12.629491883    -4.027252946
 H       -4.023282529    11.337784913    -3.269049434
 H       -6.958843176    12.093975465    -0.938660020
 H       -6.127461174    10.780939356    -1.797800713
 H       -6.932917171    12.059126519    -2.694367755
 H       -3.748999289    11.446829130     2.561450288
 H       -4.833883272    12.545594370     3.400731265
 H       -3.347633634    13.169344051     2.697084916
 H       -6.196646075    14.422225352     0.469457749
 H       -4.779245207    14.952909200     1.393790351
 H       -6.173377481    14.267514691     2.219127303
 H       -2.532764197    -1.676045000    -0.717368752
 H       -2.446633234    -1.662314069    -2.471640913
 H       -2.698932079    -0.150642084    -1.610959284
 H        0.896850397    -0.124805458    -2.956724346
 H       -0.632290086     0.773476890    -2.978505058
 H       -0.525551619    -0.817322227    -3.720789734
 H       -0.459994055    -2.977542662     0.757099400
 H       -0.642209346    -2.863377538     2.501080889
 H        0.904993222    -2.467015925     1.767653184
 H       -0.651002535     0.852665232     2.880381774
 H        0.783542663    -0.173515280     3.052302866
 H       -0.764311784    -0.697919633     3.702267603

