187   

Si        0.000000000     0.000000000     0.000000000
 C        1.865100380     0.000000000     0.000000000
 C       -0.674229071     1.713247310     0.000000000
 C        0.088169071     2.781331275     0.484573764
 C       -0.425459998     4.077929752     0.483194103
 C       -1.712883473     4.335853015     0.004992854
 C       -2.477782439     3.263984242    -0.473885741
 C       -1.967697657     1.968543235    -0.474118883
 C       -2.292115523     5.674925954    -0.016100405
 C       -1.668848011     6.786093028     0.411526685
 C       -2.250480146     8.124236535     0.389318171
 C       -1.487890440     9.198611776     0.867286199
 C       -2.001109075    10.492858813     0.865698937
 C       -3.294639253    10.741699818     0.389540156
 C       -4.057725271     9.671889173    -0.089076980
 C       -3.537791668     8.377939589    -0.091718459
Si       -3.975303692    12.449395178     0.386052886
 C       -5.794381062    12.394604551     0.208043665
 C       -6.517997093    13.098026632    -0.671962485
 C       -7.977077656    13.020900945    -0.777723448
 C       -8.626650178    13.808188151    -1.741571940
 C      -10.004014113    13.771186314    -1.881360121
 C      -10.779551187    12.957603572    -1.031437719
 C      -10.134862175    12.164281969    -0.072319133
 C       -8.747695470    12.185171521     0.033088477
 N      -12.188235260    12.964413598    -1.226711716
 C      -12.816150215    14.281764257    -0.973239681
 C      -12.924229294    11.860324965    -0.585196224
 C      -12.568361971    14.846737342     0.437271269
 C      -11.413941129    15.870061909     0.454110300
 N      -10.722645787    15.964321601     1.754036992
 C      -11.543164486    16.209298091     2.873540383
 C      -12.581687553    17.159637937     2.766546897
 C      -13.404739227    17.422523589     3.848680077
 C      -13.201964370    16.790475242     5.084663941
 C      -12.154814022    15.872504677     5.196115560
 C      -11.329262731    15.585823252     4.115722343
 C       -9.665997758    14.951854472     1.913315262
 C      -14.101794814    17.104978387     6.195978898
 C      -14.003329507    16.563636698     7.417095554
Si      -15.095814298    16.918313224     8.838289209
 C      -14.080541727    17.313485475    10.320409319
 C      -12.754575408    17.735103929    10.176487065
 C      -11.982467369    18.035382321    11.298182572
 C      -12.520259568    17.932223555    12.583997876
 C      -13.850982885    17.516022277    12.724512729
 C      -14.623708087    17.210892673    11.607184038
 C      -11.749879227    18.236053768    13.785556230
 C      -10.469268474    18.643443040    13.790313350
 C       -9.698101946    18.947489387    14.991181620
 C      -10.232400834    18.840677052    16.277728669
 C       -9.458685038    19.141617232    17.398691734
 C       -8.133232447    19.563640266    17.255757947
 C       -7.595229043    19.672502981    15.966140795
 C       -8.367941243    19.365652006    14.849766220
Si       -7.099314305    19.964494708    18.725185278
 C       -8.135194158    20.132209120    20.267464421
 C       -5.819302048    18.581465880    18.993958561
 C       -6.170265524    21.589239990    18.377353661
 C      -16.254544346    18.380498837     8.470071131
 C      -16.152293878    15.374466582     9.187878794
 C       -3.568145202    13.296821866     2.040514450
 C       -3.177990976    13.442847200    -1.025294292
 C       -0.647436601    -0.918310001    -1.537194370
 C       -0.628822504    -0.910178791     1.548596653
 H        1.101740573     2.641834396     0.870697873
 H        0.189889698     4.892229967     0.861464144
 H       -3.483356152     3.442665265    -0.850131571
 H       -2.611909619     1.172930591    -0.858552487
 H       -3.308402528     5.726811460    -0.418044547
 H       -0.652752931     6.735004630     0.813364040
 H       -0.482434644     9.022150137     1.244557330
 H       -1.360478728    11.291470464     1.249932370
 H       -5.072260103     9.809479311    -0.476884772
 H       -4.149208135     7.561904584    -0.472715395
 H       -6.279421947    11.710404954     0.925057871
 H       -6.068062753    13.792055902    -1.393607111
 H       -8.039842465    14.451367474    -2.397962020
 H      -10.493559054    14.357646163    -2.656127707
 H      -10.707051255    11.525772468     0.594477841
 H       -8.264340798    11.545353072     0.773270951
 H      -13.954689650    11.847900610    -0.982436189
 H      -12.976750777    11.923798870     0.512829400
 H      -12.461167693    10.898092415    -0.865835172
 H       -9.050588736    14.910362099     0.994897576
 H      -10.047453545    13.936068203     2.105344197
 H       -8.992254708    15.251479190     2.735347264
 H      -12.738768528    17.688420217     1.830643327
 H      -14.213897761    18.144856907     3.739100563
 H      -11.974340551    15.366649712     6.146076017
 H      -10.530287250    14.862130963     4.243957875
 H      -14.873439775    17.839792860     5.931848802
 H      -13.219876121    15.822121903     7.647437223
 H      -12.282143332    17.839589888     9.193953508
 H      -10.951255994    18.356022657    11.161533005
 H      -14.288377675    17.429509095    13.717120072
 H      -15.654927959    16.890191229    11.777647236
 H      -12.296903547    18.108294595    14.724152046
 H       -9.922727376    18.771628179    12.851222190
 H      -11.262907000    18.518868718    16.416144544
 H       -9.931657612    19.037899226    18.379098524
 H       -6.565519174    19.998100231    15.793323897
 H       -7.932114671    19.454747628    13.856390853
 H      -12.449022650    14.987333507    -1.751791307
 H      -13.909019712    14.176730956    -1.156960687
 H      -13.488544546    15.317859508     0.829924568
 H      -12.349162172    14.023197117     1.144250829
 H      -10.656315072    15.618326985    -0.323659669
 H      -11.791836752    16.882898555     0.188489935
 H        2.263106879    -1.028773482    -0.059132219
 H        2.276936499     0.463786155     0.913204004
 H        2.259001385     0.559290211    -0.868312163
 H       -7.514133635    20.419180598    21.134801936
 H       -8.645821933    19.187146549    20.522424978
 H       -8.909312459    20.910908162    20.141724271
 H       -5.260581987    18.861390404    19.933435691
 C       -6.475103884    17.206817765    19.219712184
 C       -4.796321130    18.457303763    17.850629762
 H       -5.531089692    21.391449772    17.468099368
 C       -7.122115650    22.750966155    18.039449884
 C       -5.238207081    22.021325985    19.523341706
 H      -16.774504883    18.127278307     7.501088415
 C      -17.333616609    18.591827885     9.547172731
 C      -15.487913067    19.701294923     8.273732524
 H      -16.825139200    15.646562773    10.051770228
 C      -17.042749549    14.973101153     7.998863738
 C      -15.303033892    14.162662255     9.611269568
 H       -2.442115882    13.341167326     2.097888339
 C       -4.108442159    14.734748245     2.128738906
 C       -4.073810224    12.494676542     3.252764957
 H       -3.709563944    14.438291317    -1.042335346
 C       -1.677066803    13.710175952    -0.814616623
 C       -3.371823376    12.770212143    -2.396586896
 H       -1.772513356    -0.923479007    -1.445206709
 C       -0.284644624    -0.200175326    -2.849647605
 C       -0.177267458    -2.381562995    -1.620612889
 H       -0.157487782    -1.934668889     1.516139085
 C       -0.191925938    -0.224744043     2.856198276
 C       -2.157663888    -1.087787665     1.570850214
 H       -7.163751441    17.186437366    20.074097020
 H       -5.704256227    16.451226525    19.428751144
 H       -7.026847039    16.847429816    18.339097591
 H       -4.221334504    19.375845206    17.678080781
 H       -5.256272780    18.162211574    16.896938751
 H       -4.060250345    17.675672368    18.089183243
 H       -7.784328808    22.535615004    17.188564545
 H       -6.543915214    23.643234733    17.759973632
 H       -7.756726159    23.046407695    18.885429643
 H       -4.483218665    21.266420315    19.778194690
 H       -5.780746107    22.275892088    20.443449503
 H       -4.682890217    22.925578352    19.234378404
 H      -17.989889141    17.723074193     9.683623025
 H      -17.988739198    19.428184630     9.263005226
 H      -16.913057782    18.854162053    10.528272409
 H      -14.721130613    19.652465083     7.488384431
 H      -14.993088160    20.046799837     9.193094050
 H      -16.182003134    20.500658927     7.978937377
 H      -17.743202904    15.761208170     7.694080942
 H      -17.657451111    14.101760239     8.265899405
 H      -16.464283870    14.680694356     7.110768718
 H      -14.666982211    14.360883877    10.485624825
 H      -14.654333812    13.792287066     8.805674506
 H      -15.956200283    13.324082275     9.891220250
 H       -3.722136113    15.394121273     1.340776475
 H       -3.809639491    15.190901767     3.083591743
 H       -5.206391700    14.783132209     2.095082937
 H       -3.696298211    11.462643544     3.280592311
 H       -5.169927766    12.449642964     3.310173808
 H       -3.735405634    12.968714166     4.185335322
 H       -1.458247727    14.272861589     0.101808356
 H       -1.283621402    14.314330493    -1.645351941
 H       -1.076515293    12.789738710    -0.797351661
 H       -4.423707288    12.579873170    -2.649535376
 H       -2.837116747    11.812731260    -2.480344458
 H       -2.974194797    13.414733111    -3.193182638
 H       -0.634575527     0.841400722    -2.886397818
 H       -0.753516585    -0.712054200    -3.702038196
 H        0.795054113    -0.192636695    -3.050065488
 H       -0.465403708    -2.981370130    -0.747649492
 H        0.909280878    -2.476159194    -1.747763209
 H       -0.631904097    -2.872280236    -2.493534733
 H        0.896974790    -0.132586020     2.957878219
 H       -0.532126264    -0.812369537     3.721029308
 H       -0.624797528     0.778715536     2.977513957
 H       -2.542259845    -1.658828222     0.716337265
 H       -2.698479262    -0.131369068     1.607521607
 H       -2.458359316    -1.643923464     2.470714534

