187   

Si        0.000000000     0.000000000     0.000000000
 C        1.865373300     0.000000000     0.000000000
 C       -0.666297393     1.716479529     0.000000000
 C        0.114897088     2.783845684    -0.455237531
 C       -0.390335584     4.083575457    -0.454967999
 C       -1.687871179     4.346057670    -0.007216491
 C       -2.471370185     3.275014578     0.442527964
 C       -1.969549948     1.976174054     0.444036927
 C       -2.256395526     5.689984021     0.010330244
 C       -1.609918619     6.797022473    -0.392687176
 C       -2.172737428     8.143082389    -0.377587214
 C       -3.469557898     8.413943472     0.068678515
 C       -3.966130992     9.716695489     0.065265851
 C       -3.170857863    10.778558589    -0.379261422
 C       -1.871627312    10.510955769    -0.827745094
 C       -1.381875892     9.207302573    -0.829972193
Si       -3.817792805    12.500706439    -0.387269901
 C       -2.424474785    13.680308799    -0.476370784
 C       -2.312998838    14.701806195    -1.335395037
 C       -1.176013624    15.623482734    -1.370512292
 C       -1.170061462    16.658402636    -2.317211054
 C       -0.118478754    17.556539522    -2.391673660
 C        1.000943816    17.418479937    -1.541686663
 C        0.996712561    16.379575045    -0.592533803
 C       -0.087485369    15.515399435    -0.501465591
 N        2.057228826    18.341276874    -1.634015155
 C        2.391129372    18.854789037    -2.975299799
 C        3.223849243    18.114084066    -0.768754941
 C        2.663141680    17.780281158    -4.041964301
 C        4.073446547    17.170257761    -3.968833709
 N        5.126612990    17.944153947    -4.648345583
 C        4.964385529    18.209740273    -6.017244529
 C        4.241615363    17.310276595    -6.831440303
 C        4.076640854    17.564379068    -8.182969301
 C        4.662143164    18.685439483    -8.788711084
 C        5.403491693    19.558005520    -7.987938885
 C        5.562233363    19.329919560    -6.627031681
 C        5.717421351    19.007936596    -3.822970650
 C        4.454575406    18.904566190   -10.220565947
 C        4.962521363    19.937319581   -10.906816046
Si        4.702516891    20.210115261   -12.695885074
 C        3.085629181    19.543734993   -13.266799126
 C        1.985897800    19.550859295   -12.398325479
 C        0.755126742    19.050575709   -12.813893796
 C        0.587470178    18.544492703   -14.109725023
 C        1.683450418    18.547298073   -14.976764646
 C        2.919105864    19.043340118   -14.561925130
 C       -0.721951484    18.031224780   -14.498126206
 C       -1.015880755    17.515586633   -15.703773350
 C       -2.326099149    17.002692800   -16.090493626
 C       -3.421101309    17.000469914   -15.222607773
 C       -4.656401415    16.500214735   -15.633829967
 C       -4.824984346    15.996873828   -16.927481575
 C       -3.728559661    15.998846093   -17.800486391
 C       -2.495338388    16.493350266   -17.385049650
Si       -6.448898234    15.333162459   -17.485366360
 C       -7.819415760    15.791931238   -16.305973281
 C       -6.813519017    16.027357782   -19.219985045
 C       -6.351517525    13.435648440   -17.601459969
 C        4.742396449    22.082731203   -13.028931044
 C        6.125082357    19.388790107   -13.655983372
 C       -4.998410044    12.717068963    -1.862277508
 C       -4.783298805    12.820259887     1.220886477
 C       -0.629060757    -0.908751333    -1.549078120
 C       -0.652387427    -0.914402185     1.537085425
 H        1.136958468     2.641603345    -0.817287959
 H        0.239708062     4.896839532    -0.810699639
 H       -3.484962162     3.457031799     0.794683127
 H       -2.627820768     1.181184071     0.805092309
 H       -3.282005245     5.748925171     0.385660187
 H       -0.584054165     6.735719511    -0.768314241
 H       -4.104614151     7.604628956     0.423660605
 H       -4.987994122     9.867475762     0.423960650
 H       -1.208102991    11.303193477    -1.189731316
 H       -0.371101734     9.016679601    -1.185691226
 H       -1.644453129    13.486711451     0.279116610
 H       -3.074901878    14.927222040    -2.093083134
 H       -2.013022553    16.768907483    -3.000392235
 H       -0.160959258    18.370070139    -3.110572951
 H        1.833420238    16.239363751     0.083608657
 H       -0.072113345    14.728326781     0.254577693
 H        3.962467178    18.920061701    -0.912482769
 H        3.722222676    17.145566151    -0.938186068
 H        2.901636448    18.164494993     0.288742731
 H        5.764201724    18.691343576    -2.768099317
 H        5.170231492    19.963405528    -3.878928445
 H        6.760802471    19.178645773    -4.149800760
 H        3.803540487    16.413036892    -6.403435135
 H        3.492803309    16.868553591    -8.787898959
 H        5.871327262    20.437540918    -8.432941467
 H        6.146801487    20.034136482    -6.044996809
 H        3.826425577    18.132865540   -10.688693561
 H        5.598120932    20.690386981   -10.417076923
 H        2.056750823    19.939310449   -11.376584168
 H       -0.085843595    19.057176140   -12.123081883
 H        1.580005212    18.160836163   -15.988841778
 H        3.738776463    19.019356089   -15.285119034
 H       -1.486680942    18.092143218   -13.718092791
 H       -0.252165313    17.454457993   -16.484536272
 H       -3.317570152    17.390780864   -14.211778047
 H       -5.475446791    16.523874079   -14.909699521
 H       -3.801368612    15.618844029   -18.823420540
 H       -1.655193842    16.484977758   -18.076848192
 H        1.538035152    19.496829755    -3.304258384
 H        3.259071965    19.543941088    -2.888424903
 H        1.911140902    16.969061294    -3.955403971
 H        2.496751340    18.217392930    -5.048108437
 H        4.376044457    17.012485621    -2.910486101
 H        4.063687947    16.149310191    -4.422351858
 H        2.263678543    -1.028223965     0.066338237
 H        2.259506544     0.565454626     0.864130668
 H        2.276536048     0.456936747    -0.916950674
 H       -8.797266300    15.431974556   -16.672742024
 H       -7.892053012    16.888648877   -16.190438512
 H       -7.659754483    15.356880473   -15.303872859
 H       -5.971330578    15.667710246   -19.880118282
 C       -8.134379124    15.514994449   -19.821134933
 C       -6.811665555    17.566416819   -19.251322377
 H       -7.388835088    13.094605245   -17.885782539
 C       -5.373019375    12.932054121   -18.677470151
 C       -5.985202708    12.780825678   -16.256932189
 H        5.751806260    22.441261994   -12.675173055
 C        4.605149085    22.434770030   -14.520347277
 C        3.661375519    22.838330745   -12.235130321
 H        5.953136645    19.636242336   -14.743171656
 C        7.512444949    19.925931479   -13.261258290
 C        6.121915504    17.856976697   -13.505907784
 H       -5.277268919    13.810539743    -1.877691350
 C       -4.328426139    12.372520013    -3.205087771
 C       -6.295350426    11.898312066    -1.733804552
 H       -5.643732986    12.090263876     1.216924874
 C       -3.938574775    12.550852268     2.478990742
 C       -5.365136587    14.242399648     1.300929704
 H       -0.158601131    -1.933664631    -1.517167805
 C       -2.158044520    -1.085254235    -1.572599303
 C       -0.190900807    -0.223139790    -2.856215459
 H       -1.777295203    -0.916120278     1.442637620
 C       -0.186666102    -2.378916336     1.623348908
 C       -0.290172842    -0.195521215     2.849284170
 H       -8.182564120    14.420975179   -19.896468935
 H       -8.254204827    15.898685170   -20.844852672
 H       -9.018105101    15.851073781   -19.262720297
 H       -5.873256622    18.006830522   -18.884782038
 H       -7.632849016    18.008619424   -18.671783897
 H       -6.934923875    17.922714109   -20.283996389
 H       -5.611796136    13.290419615   -19.686725166
 H       -5.403751727    11.833745566   -18.727652017
 H       -4.328583687    13.198491031   -18.462238090
 H       -6.687079576    13.022078739   -15.448306639
 H       -4.975862445    13.048525851   -15.912390476
 H       -5.995717395    11.685836361   -16.355794009
 H        5.399280544    22.005832242   -15.144593601
 H        4.662939288    23.524407945   -14.656635320
 H        3.640149313    22.124549777   -14.946319988
 H        3.727701953    22.682233327   -11.149797505
 H        2.640388199    22.574345821   -12.546571526
 H        3.761320391    23.920772698   -12.397939724
 H        7.621335173    21.007147064   -13.413513304
 H        8.288312091    19.450082173   -13.878296555
 H        7.774213648    19.705497082   -12.216746585
 H        5.179529585    17.388431979   -13.821910580
 H        6.323508967    17.528761140   -12.475670229
 H        6.910454293    17.414244183   -14.130357254
 H       -3.410104335    12.943575651    -3.398451837
 H       -5.011790673    12.595220735    -4.036461303
 H       -4.074974672    11.305953510    -3.292425916
 H       -6.888760387    12.157846623    -0.847951875
 H       -6.117343507    10.813872035    -1.714934970
 H       -6.944371791    12.084925973    -2.601859415
 H       -3.522156294    11.534223319     2.514425918
 H       -4.559618208    12.659008286     3.379605687
 H       -3.104136255    13.256185611     2.593818187
 H       -6.049727857    14.480011508     0.476573321
 H       -4.589423258    15.021408094     1.323927994
 H       -5.946286230    14.360120923     2.226668220
 H       -2.543534266    -1.658523747    -0.720008029
 H       -2.458579728    -1.638474560    -2.474301570
 H       -2.698121047    -0.128324327    -1.607100124
 H        0.898139736    -0.132134802    -2.957431432
 H       -0.622441373     0.780967589    -2.977123831
 H       -0.531369143    -0.809730224    -3.721587095
 H       -0.471753668    -2.978144352     0.749005584
 H       -0.647126258    -2.868270239     2.493970617
 H        0.899000178    -2.476178552     1.756013699
 H       -0.638639087     0.846621322     2.884280589
 H        0.789250928    -0.189431932     3.051156870
 H       -0.761178370    -0.705811536     3.701458054

