187   

Si        0.000000000     0.000000000     0.000000000
 C        1.865242455     0.000000000     0.000000000
 C       -0.678384604     1.711237442     0.000000000
 C        0.120364843     2.804308584    -0.350546525
 C       -0.404391562     4.096680586    -0.347012161
 C       -1.738270334     4.325292212     0.000484855
 C       -2.538647275     3.228353810     0.347014004
 C       -2.017603105     1.937545625     0.345644962
 C       -2.331053231     5.658394962     0.018521436
 C       -1.678267388     6.791969671    -0.289477615
 C       -2.274794316     8.123643376    -0.270236313
 C       -1.478567851     9.224233795    -0.614673622
 C       -2.004942752    10.513309076    -0.610321769
 C       -3.345716439    10.730414215    -0.268599280
 C       -4.142870380     9.633784440     0.075534094
 C       -3.610062276     8.345219680     0.078007174
Si       -4.050150149    12.429928134    -0.260012634
 C       -5.873584887    12.342420447    -0.331953806
 C       -6.724510231    12.983262870     0.480095787
 C       -8.181686714    12.882895059     0.384847697
 C       -8.972693922    13.601933629     1.292696438
 C      -10.355459821    13.541087533     1.244980926
 C      -11.004063041    12.788753214     0.241040938
 C      -10.210340935    12.067874331    -0.671862831
 C       -8.825139712    12.102187723    -0.579078601
 N      -12.407086986    12.735866451     0.204629146
 C      -13.138176583    13.940651198     0.632846864
 C      -13.025401775    12.067283498    -0.951367590
 C      -12.777819729    15.205585937    -0.173471984
 C      -13.936567910    16.219574897    -0.193818039
 N      -14.744684940    16.201808465    -1.435328448
 C      -15.289761907    14.923817893    -1.739304203
 C      -16.211773821    14.377396969    -0.824307438
 C      -16.777605361    13.136242556    -1.064212919
 C      -16.473387118    12.417806998    -2.231264583
 C      -15.578198379    12.975622889    -3.146187831
 C      -14.995277569    14.217255870    -2.913743542
 C      -14.069250152    16.887234242    -2.551742130
 C      -17.099030627    11.109670402    -2.436470802
 C      -16.883838413    10.336985784    -3.509367724
Si      -17.660412761     8.702264373    -3.774374147
 C      -19.320072058     8.584864089    -2.992414460
 C      -20.127436261     9.725473822    -2.891668348
 C      -21.386130580     9.648901061    -2.301536221
 C      -21.875080542     8.430979110    -1.810712153
 C      -21.071159692     7.293117052    -1.921371340
 C      -19.808278754     7.367078967    -2.507962004
 C      -23.200254228     8.401011913    -1.200562321
 C      -23.782127457     7.302969868    -0.689132671
 C      -25.107187172     7.271984223    -0.078806131
 C      -25.912904661     8.407938157     0.033099468
 C      -27.174035679     8.332488607     0.624296376
 C      -27.659891825     7.114883238     1.110795581
 C      -26.854152795     5.973561032     0.998525440
 C      -25.593763647     6.053173386     0.413086266
Si      -29.321982200     6.997751579     1.893807334
 C      -30.330096502     8.539300555     1.599318857
 C      -30.214158171     5.479637342     1.170902804
 C      -29.123629812     6.747305497     3.770298192
 C      -17.844385739     8.422402539    -5.646287941
 C      -16.502306253     7.370013970    -3.064501739
 C       -3.463797637    13.340329170     1.303268904
 C       -3.428715904    13.376547282    -1.789699037
 C       -0.618713622    -0.918857719    -1.547811033
 C       -0.653553248    -0.908541886     1.540162573
 H        1.170825960     2.688223151    -0.631019347
 H        0.239266684     4.930767161    -0.620333156
 H       -3.580477769     3.384380807     0.620795480
 H       -2.690107776     1.121686551     0.625142868
 H       -3.385178984     5.685613835     0.310518143
 H       -0.624490698     6.766164584    -0.581353420
 H       -0.436315384     9.072808639    -0.888084638
 H       -1.336443312    11.333585952    -0.885323821
 H       -5.196087318     9.746300004     0.354143282
 H       -4.249034700     7.508067587     0.353160544
 H       -6.244315521    11.696229392    -1.145239403
 H       -6.389413260    13.639821744     1.293684544
 H       -8.493607383    14.210635971     2.060117555
 H      -10.938395882    14.078470726     1.986999814
 H      -10.668008046    11.471738214    -1.454812067
 H       -8.234772533    11.519672337    -1.288429412
 H      -14.126766956    12.071984304    -0.845849843
 H      -12.712676150    11.008105410    -0.972221949
 H      -12.781035494    12.538835101    -1.916815810
 H      -13.871393721    17.932524595    -2.255382745
 H      -14.746897029    16.924429386    -3.422698813
 H      -13.117060022    16.427990906    -2.859710809
 H      -16.483773182    14.942131699     0.065077939
 H      -17.481478922    12.719727613    -0.342333439
 H      -15.330072568    12.439214608    -4.063048036
 H      -14.299923496    14.619927457    -3.644318326
 H      -17.776799214    10.820122933    -1.620962470
 H      -16.193559473    10.647963102    -4.308766156
 H      -19.800514861    10.702224958    -3.264074564
 H      -21.996752234    10.546800008    -2.225653735
 H      -21.427526639     6.334368122    -1.549311293
 H      -19.226605563     6.443051551    -2.566644553
 H      -23.717397739     9.364837153    -1.181748785
 H      -23.265321854     6.338921856    -0.708322739
 H      -25.560053578     9.366909693    -0.341942652
 H      -27.757788526     9.255218438     0.684518507
 H      -27.182015958     4.994681675     1.359804368
 H      -24.982244538     5.156170445     0.335885129
 H      -14.229903989    13.726057553     0.555142078
 H      -12.942793324    14.102800271     1.716907678
 H      -11.866356881    15.669448611     0.246468252
 H      -12.499809936    14.923404455    -1.207463502
 H      -14.628321261    16.048351123     0.661224910
 H      -13.544707978    17.252291030    -0.057439128
 H        2.263112982    -1.029037819     0.055304714
 H        2.260606765     0.555988239     0.869628958
 H        2.275415978     0.466344387    -0.912757799
 H      -31.341203595     8.442694551     2.033770913
 H      -30.451333222     8.733018585     0.518012715
 H      -29.858069073     9.429469779     2.050866714
 H      -29.568266897     4.590091708     1.427846897
 C      -31.608327493     5.240120960     1.777051799
 C      -30.337847759     5.543695490    -0.362207287
 H      -30.171049265     6.752213154     4.190139771
 C      -28.465199241     5.408873239     4.149655382
 C      -28.336773154     7.890440644     4.437492053
 H      -16.804041842     8.489698305    -6.077328782
 C      -18.418070611     7.038344110    -5.995584818
 C      -18.709690745     9.506191686    -6.313987445
 H      -16.981349747     6.377633481    -3.306260645
 C      -15.099461386     7.386634388    -3.697508092
 C      -16.360608048     7.475127193    -1.535511666
 H       -4.005988782    14.330022047     1.306841050
 C       -3.832144249    12.585445401     2.593697634
 C       -1.951562583    13.626971032     1.314022155
 H       -2.306176687    13.428755912    -1.689167326
 C       -3.753958871    12.647484389    -3.105570541
 C       -3.967651144    14.815851555    -1.866091373
 H       -0.134136093    -1.937184529    -1.513393236
 C       -2.144832228    -1.117646636    -1.573952312
 C       -0.188492806    -0.229631080    -2.855705304
 H       -1.778265937    -0.912840741     1.443298375
 C       -0.184526223    -2.371336233     1.635232137
 C       -0.296588178    -0.181120992     2.849091090
 H      -31.592560460     5.112262163     2.867137834
 H      -32.042413564     4.317007899     1.366018951
 H      -32.320343319     6.043091068     1.544673760
 H      -29.370305592     5.659893965    -0.871292763
 H      -30.992241801     6.355352279    -0.706719597
 H      -30.775279509     4.610420729    -0.744534212
 H      -29.013296067     4.532963229     3.780304586
 H      -28.426925928     5.306613934     5.244104542
 H      -27.426315574     5.330173355     3.799660218
 H      -28.790303768     8.878511264     4.286804754
 H      -27.293480501     7.947537094     4.095036437
 H      -28.295099118     7.734530428     5.525060166
 H      -17.801059468     6.206108670    -5.633479273
 H      -18.479711270     6.921396825    -7.087431017
 H      -19.438842202     6.888957357    -5.614919836
 H      -18.330651129    10.525457315    -6.158887507
 H      -19.755908956     9.486099525    -5.975632070
 H      -18.736909342     9.349808622    -7.401824721
 H      -15.109750321     7.240584686    -4.785057829
 H      -14.492759472     6.566976497    -3.285530744
 H      -14.546383250     8.312894331    -3.487475164
 H      -17.319692264     7.413219966    -1.002584277
 H      -15.863888932     8.402454376    -1.214519583
 H      -15.744729844     6.647694972    -1.155597841
 H       -4.906308293    12.375019261     2.688955605
 H       -3.554779782    13.182958050     3.473314698
 H       -3.301380033    11.627370961     2.692468939
 H       -1.619069295    14.246387570     0.471485683
 H       -1.342808084    12.711828140     1.320853620
 H       -1.680812337    14.179586149     2.225517904
 H       -3.363095910    11.620773378    -3.142514063
 H       -3.299373785    13.179103189    -3.953478216
 H       -4.831719090    12.600261206    -3.313440760
 H       -3.694636493    15.429182524    -0.997761838
 H       -5.061187064    14.858067995    -1.972443013
 H       -3.553225417    15.327064500    -2.746600124
 H       -2.524370709    -1.689669205    -0.717882896
 H       -2.434508885    -1.682463418    -2.472027682
 H       -2.698391361    -0.168978285    -1.618371422
 H        0.899215602    -0.121941225    -2.955069602
 H       -0.634721380     0.767685488    -2.979408219
 H       -0.518298063    -0.823097179    -3.720440292
 H       -0.466099092    -2.975867340     0.763439959
 H       -0.645819303    -2.857143406     2.507413907
 H        0.901050336    -2.465195824     1.770954628
 H       -0.650658218     0.859421967     2.877726629
 H        0.782329500    -0.168616399     3.052920156
 H       -0.766840285    -0.688941864     3.703168782

