187   

Si        0.000000000     0.000000000     0.000000000
 C        1.865320514     0.000000000     0.000000000
 C       -0.675820085     1.712292340     0.000000000
 C        0.122931393     2.800987508     0.364345616
 C       -0.397340050     4.094889900     0.361502922
 C       -1.727376473     4.329294235     0.002554095
 C       -2.527767571     3.237035752    -0.357253165
 C       -2.010623004     1.944497625    -0.357763400
 C       -2.313200567     5.665303150    -0.014483666
 C       -1.651612118     6.789960119     0.306100553
 C       -2.228273453     8.129584096     0.292134079
 C       -3.556448535     8.375489106    -0.064958864
 C       -4.065634982     9.674202095    -0.064035931
 C       -3.244359843    10.759157874     0.257426516
 C       -1.908179104    10.515086430     0.604260241
 C       -1.409584949     9.216444541     0.627800505
Si       -3.898017047    12.484119317     0.264478501
 C       -2.969386198    13.465039498     1.500038667
 C       -2.455249029    12.889057662     2.595457346
 C       -1.699982710    13.574962253     3.641481361
 C       -1.236102536    12.806677079     4.721205696
 C       -0.514504451    13.387625884     5.747940694
 C       -0.203919818    14.762127236     5.702088379
 C       -0.678888782    15.536536413     4.633280299
 C       -1.447263321    14.947371729     3.633564702
 N        0.539087244    15.291653613     6.789068464
 C        1.834403195    14.632464032     7.047197986
 C        0.597964673    16.758144963     6.884896364
 C        3.018164075    15.024529346     6.137146246
 C        3.173189639    14.158612674     4.870933167
 N        2.289762494    14.583918981     3.762319807
 C        2.349661611    13.755092141     2.594485082
 C        3.407279228    12.890070811     2.287770040
 C        3.363678442    12.128085257     1.123675107
 C        2.252063955    12.162209973     0.274655837
 C        1.185231884    13.008461796     0.604281003
 C        1.229468949    13.794070711     1.745179363
 C        2.464361719    16.007615310     3.390833852
 C        2.259150447    11.339004226    -0.939112563
 C        1.250728330    11.295946772    -1.818961851
Si        1.177440262    10.300291010    -3.353241945
 C        0.682138171    11.433936969    -4.719123556
 C        0.887117794    12.813860481    -4.594809615
 C        0.515773451    13.677321938    -5.622082620
 C       -0.066657771    13.184737074    -6.797093704
 C       -0.267370918    11.806818835    -6.918892963
 C        0.104067578    10.939340084    -5.892640833
 C       -0.438852564    14.129003037    -7.845337170
 C       -1.002514827    13.789108131    -9.016886400
 C       -1.374706092    14.733387403   -10.065125162
 C       -1.174617000    16.110987723    -9.944636699
 C       -1.545621508    16.978236864   -10.972138165
 C       -2.132676392    16.485580036   -12.141704750
 C       -2.335195092    15.104240393   -12.264700331
 C       -1.958106661    14.240551718   -11.240201251
Si       -2.627992706    17.616566112   -13.506919795
 C       -2.608429286    19.400631715   -12.962068573
 C       -1.426723518    17.411068701   -14.969164599
 C       -4.373976942    17.125082851   -14.084461702
 C        2.866301633     9.524876257    -3.752066169
 C       -0.105869590     8.907954948    -3.219760920
 C       -3.647285104    13.241795120    -1.462045956
 C       -5.750281850    12.496635042     0.681828743
 C       -0.651782565    -0.907009961    -1.541876109
 C       -0.621771736    -0.918259240     1.546718011
 H        1.169991808     2.679972640     0.655411664
 H        0.246793177     4.925040793     0.646145929
 H       -3.566525564     3.397631885    -0.639523753
 H       -2.682611638     1.132011842    -0.647821047
 H       -3.363248360     5.702722733    -0.317168121
 H       -0.602295655     6.747687726     0.615460254
 H       -4.210681428     7.549772363    -0.336348279
 H       -5.116860333     9.801623838    -0.334972845
 H       -1.211452270    11.325042739     0.855083657
 H       -0.370707516     9.049588344     0.910719882
 H       -2.869043928    14.539013168     1.303152871
 H       -2.567837558    11.811819733     2.803783039
 H       -1.444299143    11.736622176     4.752723816
 H       -0.184949588    12.786149726     6.591069688
 H       -0.451670901    16.594831299     4.572661904
 H       -1.829792508    15.566825583     2.822881713
 H        1.087469823    17.038388670     7.833097427
 H       -0.433181016    17.154417769     6.920492269
 H        1.133282415    17.251413037     6.058898679
 H        1.978815512    16.632920565     4.158645011
 H        1.953266723    16.221946231     2.436870107
 H        3.517953658    16.308255368     3.290004653
 H        4.277760204    12.825499838     2.932656675
 H        4.208589838    11.483725549     0.883521658
 H        0.301820610    13.050568175    -0.035729818
 H        0.385081582    14.433051701     2.008562352
 H        3.179356083    10.754852043    -1.060848244
 H        0.332914802    11.888868124    -1.651782269
 H        1.340480246    13.254966342    -3.700908513
 H        0.682261471    14.746630849    -5.508433123
 H       -0.717792750    11.398643664    -7.821419461
 H       -0.078155924     9.871913480    -6.045087312
 H       -0.223551483    15.176521437    -7.614830674
 H       -1.217333408    12.741622513    -9.247738935
 H       -0.723474029    16.520448362    -9.042647511
 H       -1.362554990    18.045574591   -10.820404097
 H       -2.790086102    14.662238405   -13.155645843
 H       -2.121504700    13.170685738   -11.354968345
 H        2.098316873    14.868644623     8.105731553
 H        1.684611705    13.529772716     7.007473522
 H        2.953745509    16.094327836     5.872618651
 H        3.952113548    14.929852470     6.727792139
 H        4.246829076    14.166553573     4.571968081
 H        2.905097655    13.101777884     5.106487291
 H        2.263225546    -1.029275992    -0.051095742
 H        2.275915188     0.470099337     0.910649016
 H        2.260188488     0.552279434    -0.872114660
 H       -2.943670912    20.068688533   -13.775428043
 H       -1.597245428    19.725572408   -12.660525735
 H       -3.284686972    19.559508674   -12.102529628
 H       -1.749616930    18.171469000   -15.737730186
 C        0.032112328    17.714247549   -14.580921624
 C       -1.482963151    16.019320773   -15.624081941
 H       -4.293505994    16.055807685   -14.437461885
 C       -5.405796774    17.166693799   -12.942735155
 C       -4.892826106    17.971350335   -15.260613637
 H        3.162616155     8.939314245    -2.833885986
 C        2.824945514     8.551672785    -4.943872068
 C        3.952548612    10.583241527    -4.018332476
 H       -0.114723485     8.405874823    -4.232076321
 C        0.264021490     7.844980368    -2.173092000
 C       -1.524567033     9.431825433    -2.944272273
 H       -4.104011467    14.271840030    -1.419427072
 C       -2.161488084    13.390618290    -1.834803712
 C       -4.355665671    12.447572074    -2.573789914
 H       -6.261494948    11.912976702    -0.137337996
 C       -6.052942511    11.803296840     2.022524362
 C       -6.356538590    13.911292555     0.704033735
 H       -1.776423341    -0.914581390    -1.444744940
 C       -0.297038118    -0.175869788    -2.849379294
 C       -0.178756635    -2.368287727    -1.640183321
 H       -0.139679027    -1.937727362     1.512292389
 C       -0.191560044    -0.230084161     2.855132274
 C       -2.148470072    -1.113057702     1.570891556
 H        0.175706608    18.724624544   -14.176949869
 H        0.680214217    17.642567006   -15.466138350
 H        0.434986771    17.001940482   -13.846399250
 H       -2.478314707    15.755452715   -16.003106203
 H       -1.154508798    15.216632116   -14.948822711
 H       -0.806599651    15.985068767   -16.490689978
 H       -5.129699616    16.535519155   -12.085809137
 H       -6.376923836    16.793752669   -13.298059627
 H       -5.584811927    18.181013454   -12.562236238
 H       -4.242611590    17.932903620   -16.144138490
 H       -5.037606981    19.027489538   -14.997348815
 H       -5.875134487    17.598938887   -15.585939828
 H        2.146731139     7.702406570    -4.789158224
 H        3.822139095     8.119819160    -5.111394322
 H        2.542456317     9.040589662    -5.886695231
 H        4.078032271    11.301785431    -3.197091513
 H        3.766093072    11.162112762    -4.934449602
 H        4.928352309    10.096887577    -4.155295719
 H        1.201972881     7.321598567    -2.395694222
 H       -0.518063257     7.070428195    -2.132127126
 H        0.338341091     8.253684666    -1.155621088
 H       -1.871290538    10.172543837    -3.676535034
 H       -1.630210257     9.877610401    -1.942566218
 H       -2.246099222     8.602638848    -2.977565329
 H       -1.590780809    13.999960506    -1.122110163
 H       -2.065175019    13.886029355    -2.812261588
 H       -1.656325941    12.418992325    -1.939404770
 H       -5.440704308    12.369952697    -2.434266935
 H       -3.958094182    11.428635803    -2.691197823
 H       -4.206684675    12.944723726    -3.543994178
 H       -5.705997025    10.761394691     2.063408967
 H       -7.137640068    11.773568404     2.196505502
 H       -5.616885131    12.330212243     2.883813671
 H       -6.252236023    14.445573597    -0.248835579
 H       -5.930406055    14.546055196     1.493596888
 H       -7.435942729    13.854298124     0.906073317
 H       -0.654289404     0.863571106    -2.875879758
 H       -0.765538710    -0.683452188    -3.704538013
 H        0.781851105    -0.159648432    -3.053035660
 H       -0.460787135    -2.975977846    -0.770668487
 H        0.907329717    -2.459085163    -1.773826878
 H       -0.636866922    -2.852752384    -2.514764876
 H        0.896249663    -0.124992347     2.956005215
 H       -0.524106907    -0.822967157     3.719313216
 H       -0.635679031     0.768264665     2.978379400
 H       -2.529284522    -1.679078763     0.711424966
 H       -2.699306110    -0.163022421     1.620299704
 H       -2.440231421    -1.682264397     2.465564073

