187   

Si        0.000000000     0.000000000     0.000000000
 C        1.865263058     0.000000000     0.000000000
 C       -0.678221408     1.711402421     0.000000000
 C        0.131196680     2.809059946    -0.309001267
 C       -0.394089925     4.101226621    -0.305721951
 C       -1.739254598     4.324922289    -0.001348121
 C       -2.550128196     3.223459810     0.303957137
 C       -2.028204213     1.933037668     0.304466640
 C       -2.332452165     5.657898738     0.014466048
 C       -1.668839992     6.794908265    -0.255351838
 C       -2.264321033     8.126968369    -0.238896648
 C       -1.456011625     9.230710610    -0.540572533
 C       -1.980759535    10.520915858    -0.537235541
 C       -3.326369407    10.738846224    -0.218460182
 C       -4.135598553     9.637547667     0.084283215
 C       -3.610181823     8.346628327     0.068457895
Si       -4.046885664    12.431265982    -0.205936051
 C       -5.368486791    12.602866822     1.046100923
 C       -5.410358413    11.914521160     2.194953504
 C       -6.467458386    12.050855675     3.197886788
 C       -6.399398710    11.272790019     4.363214043
 C       -7.373227845    11.363085560     5.343578460
 C       -8.438227354    12.281246766     5.211135125
 C       -8.507519762    13.062057010     4.042352525
 C       -7.546233602    12.925468704     3.048251249
 N       -9.416459343    12.357590548     6.217042093
 C       -8.977408097    12.144593918     7.608194576
 C      -10.458505411    13.383069881     6.064342334
 C       -7.823135687    13.045719588     8.079290110
 C       -8.259539109    14.466274339     8.476160300
 N       -8.807584178    14.597860186     9.837454014
 C       -8.001018857    14.183372150    10.909292659
 C       -6.595580875    14.284492194    10.813130805
 C       -5.789502668    13.878853198    11.863813004
 C       -6.341881983    13.405918807    13.063060941
 C       -7.733216393    13.335582655    13.168030929
 C       -8.556726324    13.721507051    12.117991257
 C      -10.248597241    14.323738702     9.935284764
 C       -5.442036103    12.990700143    14.139845513
 C       -5.851647456    12.523451612    15.327023846
Si       -4.724103834    12.005517213    16.670268556
 C       -3.142070762    12.943919266    16.640544593
 C       -3.127854208    14.269624623    16.191632512
 C       -1.937954298    14.995015182    16.162605051
 C       -0.739469803    14.418740075    16.593437213
 C       -0.757719706    13.094852982    17.051071222
 C       -1.944158070    12.365761152    17.077238801
 C        0.528763063    15.140405165    16.580621056
 C        0.681140033    16.409950592    16.167137680
 C        1.947808387    17.134103798    16.153160757
 C        3.148987119    16.561232021    16.578578301
 C        4.337362029    17.290944990    16.547940480
 C        4.350826904    18.609248465    16.082139260
 C        3.147352104    19.185627105    15.653374603
 C        1.961821479    18.457221902    15.691455000
Si        5.910555232    19.585964811    16.035185142
 C        7.407537619    18.500283331    16.280371949
 C        6.008841327    20.471652115    14.352987338
 C        5.876837496    20.901473157    17.410542274
 C       -5.589995326    12.320755978    18.334466025
 C       -4.383999946    10.141196988    16.501515974
 C       -2.693123470    13.719574266     0.151663707
 C       -4.793280059    12.788916394    -1.918753286
 C       -0.614703312    -0.920575185    -1.548509566
 C       -0.656820462    -0.905846457     1.540106910
 H        1.190535923     2.697029412    -0.555803752
 H        0.258185279     4.938946714    -0.545578194
 H       -3.600767649     3.375696675     0.544090903
 H       -2.708656751     1.113441663     0.552117948
 H       -3.396152590     5.681798276     0.269532219
 H       -0.605512849     6.771736313    -0.510781355
 H       -0.405811038     9.081491518    -0.783378850
 H       -1.303244761    11.341824527    -0.786974620
 H       -5.195538313     9.748549463     0.338261251
 H       -4.261039603     7.506278046     0.303153373
 H       -6.143289051    13.342722072     0.795241727
 H       -4.643826199    11.176777983     2.473219256
 H       -5.571851772    10.574055664     4.496948302
 H       -7.311952833    10.720028101     6.217239144
 H       -9.311306093    13.775297583     3.895842642
 H       -7.633407587    13.530100995     2.144329693
 H      -11.172686938    13.324066772     6.902233301
 H      -11.033846485    13.175222473     5.142159077
 H      -10.065651938    14.411562014     6.008617543
 H      -10.766355766    14.677008578     9.028473622
 H      -10.666383470    14.898327944    10.783818274
 H      -10.485955693    13.257141384    10.082132732
 H       -6.134876670    14.677469902     9.911129027
 H       -4.705143398    13.943945725    11.758749446
 H       -8.190114544    12.972946471    14.090053686
 H       -9.631439470    13.650284158    12.244885745
 H       -4.379158645    13.105938481    13.882089001
 H       -6.921364261    12.408695589    15.557287449
 H       -4.036662640    14.775745826    15.847853144
 H       -1.951652207    16.021917058    15.801735824
 H        0.164173443    12.627615970    17.391594726
 H       -1.896444430    11.337262450    17.444856784
 H        1.386355689    14.565680081    16.942097007
 H       -0.177441517    16.984050970    15.806105162
 H        3.166522465    15.534977961    16.940756565
 H        5.244774486    16.789517804    16.895610760
 H        3.097441449    20.211799729    15.278326334
 H        1.036824093    18.922539749    15.356068008
 H       -9.855590213    12.255182396     8.280762785
 H       -8.672702818    11.073380073     7.698112739
 H       -7.309756298    12.559887553     8.934753991
 H       -7.052631091    13.111726385     7.283352725
 H       -7.386926426    15.159850246     8.399828193
 H       -9.006153970    14.860619773     7.752678760
 H        2.263071189    -1.029629126     0.044278319
 H        2.261210702     0.546541471     0.875268070
 H        2.274959484     0.475759142    -0.908159408
 H        8.340652779    19.087597127    16.211843485
 H        7.455006616    17.711139034    15.508105396
 H        7.397680286    18.005970500    17.267530583
 H        5.101888878    21.142024622    14.303221106
 C        7.258115477    21.356808336    14.196794718
 C        5.935816591    19.492910740    13.167056577
 H        6.877158342    21.421110606    17.359417307
 C        4.778681005    21.963403477    17.222491434
 C        5.730619746    20.284229370    18.813517580
 H       -6.543818836    11.719006645    18.309167667
 C       -4.762079825    11.854380657    19.544603728
 C       -5.963925122    13.801742221    18.524762666
 H       -3.736077770     9.859495384    17.381078438
 C       -5.661124827     9.284184668    16.559708352
 C       -3.614683603     9.803626702    15.211775054
 H       -1.933334373    13.613822441    -0.675557420
 C       -3.214455243    15.167642183     0.134032650
 C       -1.982005316    13.461400586     1.492177802
 H       -5.207284243    13.836956855    -1.866428115
 C       -3.754528745    12.740674067    -3.052716566
 C       -5.951241590    11.833980511    -2.260085239
 H       -0.125233989    -1.936638628    -1.513816344
 C       -2.139664332    -1.127177784    -1.577187982
 C       -0.186189462    -0.228915043    -2.855712261
 H       -1.781267428    -0.910721588     1.439759321
 C       -0.187220615    -2.368154750     1.639456084
 C       -0.304166298    -0.175663733     2.848655697
 H        7.342260402    22.130877829    14.970506125
 H        7.223838216    21.887382406    13.234060729
 H        8.193263662    20.781277573    14.196130104
 H        5.035424362    18.862028594    13.180206710
 H        6.805819399    18.825750339    13.106415469
 H        5.906337578    20.049662186    12.219587653
 H        4.862196518    22.514239186    16.277135687
 H        4.843662054    22.715891319    18.022028344
 H        3.764582254    21.543483273    17.280771735
 H        6.525731758    19.569341382    19.061310301
 H        4.767521222    19.773309178    18.956699513
 H        5.777161446    21.072425521    19.578675714
 H       -4.535248698    10.780780734    19.529859393
 H       -5.319499762    12.037265622    20.474704098
 H       -3.810918907    12.396414022    19.647118634
 H       -6.605571224    14.196178997    17.724990535
 H       -5.084624930    14.458030347    18.598485549
 H       -6.523443579    13.932306411    19.461780936
 H       -6.230444861     9.412126780    17.489064567
 H       -5.400104396     8.217428387    16.504898883
 H       -6.342653658     9.476216524    15.719184890
 H       -2.655608262    10.332944084    15.123973671
 H       -4.193243161    10.017238671    14.301257759
 H       -3.378304309     8.730776393    15.182307391
 H       -3.667792303    15.456225783    -0.822736935
 H       -2.383444746    15.867781461     0.302673448
 H       -3.948520066    15.366982487     0.927298508
 H       -1.528790513    12.462674335     1.561385724
 H       -2.648500947    13.581210806     2.358723319
 H       -1.163400772    14.181466294     1.630827147
 H       -2.939386195    13.464872709    -2.928507326
 H       -4.234036404    12.980462590    -4.012810469
 H       -3.302733932    11.745981178    -3.177175416
 H       -6.766089540    11.855096731    -1.523570898
 H       -5.626047132    10.788760497    -2.365146821
 H       -6.399333822    12.113735760    -3.223986818
 H       -2.518401935    -1.697924604    -0.719944250
 H       -2.424313465    -1.696861326    -2.473863358
 H       -2.697777628    -0.181506061    -1.626884503
 H        0.901056782    -0.115022336    -2.953379208
 H       -0.637705587     0.765935278    -2.980094054
 H       -0.511277629    -0.824183722    -3.721009262
 H       -0.463651533    -2.974113303     0.767000312
 H       -0.652665620    -2.853214569     2.509843635
 H        0.897742744    -2.460785382     1.780950814
 H       -0.659168645     0.864618072     2.874231498
 H        0.774110724    -0.162003718     3.055694098
 H       -0.776683632    -0.682208586     3.702255610

