187   

Si        0.000000000     0.000000000     0.000000000
 C        1.864804857     0.000000000     0.000000000
 C       -0.678043388     1.710649967     0.000000000
 C        0.105981154     2.797052546     0.401184672
 C       -0.418014321     4.089832091     0.397359336
 C       -1.734860352     4.324293736    -0.005471111
 C       -2.519941908     3.233813403    -0.403115313
 C       -2.001546000     1.942689161    -0.397994337
 C       -2.328942036     5.655219712    -0.027387952
 C       -1.701498200     6.789244169     0.327052273
 C       -2.318019961     8.111752224     0.296651620
 C       -1.559360581     9.220684871     0.691005840
 C       -2.110038589    10.500144024     0.676660860
 C       -3.438415301    10.694457020     0.282453431
 C       -4.201576582     9.588099535    -0.107285342
 C       -3.643083034     8.311916886    -0.101660828
Si       -4.202841355    12.366631150     0.249619762
 C       -5.926287325    12.188941806     0.833032663
 C       -7.016326435    12.667617986     0.220148185
 C       -8.379339117    12.500640607     0.725486634
 C       -9.444671589    13.045916397    -0.002166197
 C      -10.753709350    12.914928138     0.434359663
 C      -11.057460405    12.118835823     1.558395430
 C       -9.986111913    11.540481524     2.271076855
 C       -8.674942210    11.754163871     1.870466477
 N      -12.379433422    11.979560104     2.008575516
 C      -13.489441496    12.180627266     1.061731955
 C      -12.639561285    10.890282838     2.966583381
 C      -13.727020797    11.010938309     0.088304893
 C      -13.166696290    11.296718324    -1.319152380
 N      -12.837814527    10.081910489    -2.092972640
 C      -11.798135850     9.308294552    -1.497326867
 C      -10.524116671     9.900361241    -1.403671242
 C       -9.471733872     9.201766614    -0.835646249
 C       -9.648640815     7.888779114    -0.371550124
 C      -10.909814184     7.301845731    -0.482544570
 C      -11.978294226     7.996586281    -1.041177403
 C      -14.037295327     9.330872754    -2.501896119
 C       -8.505879087     7.191048188     0.221448863
 C       -8.556730304     5.939188892     0.696935262
Si       -7.129581833     5.069320616     1.436920925
 C       -5.969351083     6.240003417     2.252096932
 C       -6.449741237     7.447768729     2.771695398
 C       -5.583292730     8.345252615     3.392224790
 C       -4.226975491     8.040696912     3.537847607
 C       -3.751807523     6.824484703     3.032419503
 C       -4.611793821     5.932714027     2.395997193
 C       -3.285879123     8.950783208     4.180575856
 C       -3.621151780    10.142561611     4.702441038
 C       -2.687676424    11.059168500     5.346844105
 C       -1.326715115    10.777294576     5.484873913
 C       -0.471230663    11.685453386     6.109182727
 C       -0.961638421    12.894969611     6.609799270
 C       -2.328849667    13.176295367     6.480535557
 C       -3.180806131    12.265481422     5.864100562
Si        0.146763834    14.108174673     7.436819758
 C        1.943845005    13.657406220     7.219686651
 C       -0.204590205    15.815775007     6.670194839
 C       -0.242426930    14.180926116     9.297891501
 C       -7.750051081     3.834601934     2.740781824
 C       -6.227875306     4.123021184     0.051455875
 C       -3.261167386    13.593335185     1.350370552
 C       -4.151293204    13.011462831    -1.540769901
 C       -0.652421010    -0.914398541    -1.537219428
 C       -0.631618981    -0.907062779     1.549853751
 H        1.143786956     2.674920645     0.722339489
 H        0.212715299     4.918927422     0.711863287
 H       -3.548318123     3.395845030    -0.725843511
 H       -2.661820435     1.131607761    -0.716981610
 H       -3.369765261     5.682269290    -0.369168321
 H       -0.662568512     6.772441777     0.665946157
 H       -0.528786014     9.086112600     1.011915519
 H       -1.471423092    11.328822502     0.994407151
 H       -5.248927400     9.681460681    -0.413814945
 H       -4.258431092     7.464063841    -0.399936968
 H       -6.004820882    11.632386296     1.782575205
 H       -6.970628078    13.231769507    -0.719898885
 H       -9.243294890    13.616717946    -0.909409008
 H      -11.543481147    13.427400097    -0.106790023
 H      -10.170435493    10.922953011     3.144230489
 H       -7.865573468    11.309733543     2.453153383
 H      -13.717640170    10.817126395     3.183024792
 H      -12.134753812    11.123866929     3.922257481
 H      -12.291154251     9.905393920     2.611399949
 H      -14.671044893     9.990747372    -3.119572234
 H      -14.643370789     8.948242747    -1.667152139
 H      -13.735288994     8.482446159    -3.141176820
 H      -10.371105202    10.913582873    -1.772739157
 H       -8.494694280     9.682723232    -0.749813767
 H      -11.071375399     6.283610593    -0.127914226
 H      -12.948327417     7.514182710    -1.104857620
 H       -7.591659130     7.803055174     0.244445479
 H       -9.482053662     5.346648156     0.651180735
 H       -7.505049252     7.732811481     2.701993989
 H       -5.974621270     9.289392870     3.766338101
 H       -2.696547877     6.572414878     3.126521198
 H       -4.178463081     5.000898936     2.019404757
 H       -2.251853531     8.596467772     4.210842187
 H       -4.655719320    10.496113691     4.662658811
 H       -0.920336736     9.843835728     5.099700742
 H        0.584394859    11.412061440     6.185982372
 H       -2.767758810    14.105278400     6.855502058
 H       -4.241518550    12.496138805     5.780444176
 H      -14.408143218    12.354408737     1.671812530
 H      -13.328971179    13.133625881     0.510343326
 H      -13.262184704    10.087863194     0.490764635
 H      -14.806239033    10.787254297     0.023237241
 H      -13.889217453    11.898960398    -1.910931194
 H      -12.235322424    11.905763091    -1.251684431
 H        2.263094234    -1.029508233    -0.043137978
 H        2.275860139     0.477782667     0.906401321
 H        2.258829152     0.545867115    -0.876749586
 H        2.602708331    14.409563306     7.689118513
 H        2.212460174    13.603446072     6.149146424
 H        2.177771358    12.679603313     7.676029197
 H       -1.282317150    16.046980361     6.914599468
 C        0.664368533    16.942671260     7.255342653
 C       -0.061445186    15.814214628     5.136950294
 H        0.514003231    14.893247600     9.738333970
 C       -1.647084845    14.721655930     9.619554501
 C       -0.070899653    12.815108552     9.988013686
 H       -8.447997691     3.131168505     2.202409453
 C       -6.615993498     3.002184608     3.364545100
 C       -8.543460502     4.524007921     3.865507332
 H       -5.236858370     3.807767466     0.491766791
 C       -6.960395997     2.851545047    -0.411774982
 C       -5.958262350     5.010765702    -1.176618348
 H       -2.207325872    13.624376308     0.946481391
 C       -3.832822458    15.021715775     1.296021934
 C       -3.196058015    13.140935631     2.816390720
 H       -4.716496192    13.987543636    -1.535884708
 C       -2.721743029    13.291480034    -2.038208605
 C       -4.842140255    12.060385916    -2.535005625
 H       -1.776507354    -0.929878221    -1.434905402
 C       -0.308930519    -0.183990272    -2.848005666
 C       -0.169867480    -2.372677163    -1.634287166
 H       -0.171586449    -1.936360400     1.513937349
 C       -0.181895956    -0.227718273     2.856364077
 C       -2.162408837    -1.067759032     1.579950536
 H        0.563354920    17.049777968     8.343081184
 H        0.366985289    17.909068199     6.822785515
 H        1.732000982    16.821316545     7.029165079
 H       -0.701278595    15.068895542     4.642620858
 H        0.969380743    15.638806119     4.802155792
 H       -0.357050967    16.791635864     4.729935514
 H       -1.827841461    15.729430519     9.224988949
 H       -1.781711550    14.790952152    10.708948482
 H       -2.450099910    14.066100509     9.254382083
 H        0.936290447    12.393136329     9.877607264
 H       -0.787612818    12.062479784     9.628881203
 H       -0.245365752    12.914508578    11.068982522
 H       -6.051194129     2.413357231     2.629791037
 H       -7.029560386     2.281770725     4.084416164
 H       -5.895135039     3.615118483     3.925792144
 H       -9.407734068     5.096316365     3.502436490
 H       -7.924739739     5.204492116     4.468575086
 H       -8.941048213     3.772586597     4.562054990
 H       -7.110799081     2.118275631     0.390689301
 H       -6.372355323     2.340089136    -1.187707414
 H       -7.940737900     3.060470661    -0.860166333
 H       -5.421501430     5.940027885    -0.940508165
 H       -6.881544331     5.297697206    -1.702038198
 H       -5.344322318     4.470946857    -1.911110340
 H       -3.827162560    15.455707866     0.288466335
 H       -3.227408593    15.691726138     1.923460022
 H       -4.860352876    15.085804847     1.680834783
 H       -2.780230382    12.129878631     2.947942682
 H       -4.174880427    13.160049329     3.314527961
 H       -2.542859519    13.810353424     3.395433244
 H       -2.192201318    14.044756526    -1.440993825
 H       -2.750063873    13.680055089    -3.066291501
 H       -2.095460575    12.388527798    -2.070245598
 H       -5.887616227    11.839926906    -2.279184330
 H       -4.317425164    11.099118334    -2.637012765
 H       -4.857061380    12.509181421    -3.537856087
 H       -0.672163514     0.853410011    -2.874941376
 H       -0.778690168    -0.696101289    -3.699754243
 H        0.768888921    -0.161769887    -3.057168834
 H       -0.442596452    -2.980060611    -0.761663899
 H        0.916113865    -2.456114755    -1.773921638
 H       -0.629561417    -2.862579398    -2.504998253
 H        0.908316584    -0.144670359     2.952165068
 H       -0.522255038    -0.813949878     3.722039487
 H       -0.605461093     0.779237881     2.981499915
 H       -2.557946373    -1.630132826     0.724759703
 H       -2.691983496    -0.105285303     1.625791220
 H       -2.463388374    -1.626060821     2.478378330

