187   

Si        0.000000000     0.000000000     0.000000000
 C        1.865298243     0.000000000     0.000000000
 C       -0.676759296     1.712061309     0.000000000
 C        0.135272961     2.809076422    -0.304514149
 C       -0.388288386     4.101857602    -0.301448903
 C       -1.734096140     4.327089665    -0.000876263
 C       -2.547468992     3.226376486     0.300399503
 C       -2.027328902     1.935117648     0.300692957
 C       -2.324931772     5.661199912     0.014372903
 C       -1.657485761     6.796648223    -0.252528911
 C       -2.248415846     8.130672010    -0.237248988
 C       -1.434724753     9.231383079    -0.535843596
 C       -1.954387562    10.523535321    -0.533651271
 C       -3.300307496    10.746665699    -0.219207402
 C       -4.114804109     9.648536139     0.080200092
 C       -3.594441249     8.355445435     0.065417383
Si       -4.009880012    12.443719294    -0.209559893
 C       -5.353968028    12.620404623     1.017353499
 C       -5.425569512    11.928199734     2.162418106
 C       -6.501967371    12.070551317     3.143662062
 C       -6.465889207    11.288207249     4.307365062
 C       -7.459295005    11.384166104     5.267456306
 C       -8.511624237    12.314345081     5.117281219
 C       -8.548069911    13.100430252     3.949903175
 C       -7.568254422    12.957204930     2.975363049
 N       -9.511147617    12.399417728     6.099453647
 C       -9.123930566    12.131830890     7.495775806
 C      -10.520623617    13.456332437     5.944174537
 C       -7.960961683    12.983729049     8.032188494
 C       -8.363518192    14.409044118     8.447128983
 N       -9.035113598    14.521528197     9.754051946
 C       -8.382539740    13.974446781    10.870436431
 C       -6.972048758    14.002081191    10.938548713
 C       -6.312438252    13.466894267    12.032491793
 C       -7.020859095    12.932112813    13.118279572
 C       -8.416957707    12.933926325    13.062615407
 C       -9.095005304    13.449473637    11.965291650
 C      -10.497590306    14.386296319     9.696100793
 C       -6.273594351    12.379011770    14.249191133
 C       -6.845206691    11.844127072    15.335922211
Si       -5.965646874    11.140183742    16.774874081
 C       -6.641029439     9.472366035    17.157184002
 C       -7.321859076     8.746004274    16.174517402
 C       -7.835910356     7.481371914    16.458645033
 C       -7.671608769     6.911266858    17.724050666
 C       -6.983232651     7.638633961    18.704376168
 C       -6.472490180     8.903676394    18.425748068
 C       -8.192168079     5.591690516    18.065969988
 C       -8.867901206     4.793585260    17.222031638
 C       -9.388609224     3.473955072    17.563593788
 C       -9.228997939     2.904731195    18.829591950
 C       -9.743403669     1.639576632    19.112819099
 C      -10.424004416     0.912391247    18.131377811
 C      -10.584618301     1.480682790    16.860395348
 C      -10.075103806     2.745959190    16.582459029
Si      -11.108468871    -0.758413337    18.490187223
 C      -10.418151227    -1.456475228    20.076314184
 C      -13.002427896    -0.644976607    18.643648407
 C      -10.688630953    -1.904643576    17.029610462
 C       -4.099842715    10.991599646    16.439221784
 C       -6.227969003    12.290760662    18.267680271
 C       -2.653265901    13.720006906     0.179197657
 C       -4.721859118    12.815206413    -1.934260009
 C       -0.615158601    -0.920886652    -1.548085138
 C       -0.656600012    -0.904906168     1.540720510
 H        1.195263680     2.696009902    -0.548105991
 H        0.265760809     4.938854443    -0.538991178
 H       -3.598679356     3.379684343     0.537286602
 H       -2.709802740     1.116052970     0.544573956
 H       -3.389286062     5.687231455     0.266224422
 H       -0.593397038     6.770395716    -0.504735710
 H       -0.384284338     9.078155370    -0.775149675
 H       -1.272851686    11.341819985    -0.781141825
 H       -5.175275710     9.763530882     0.330021711
 H       -4.249413199     7.517491911     0.297259843
 H       -6.117445422    13.367718370     0.753722227
 H       -4.671360296    11.182949083     2.453823182
 H       -5.648474107    10.580517776     4.455637012
 H       -7.422277575    10.736044789     6.138600525
 H       -9.341459048    13.822187934     3.789276200
 H       -7.630671987    13.565784549     2.071964576
 H      -11.251700889    13.406314645     6.768010818
 H      -11.084641054    13.279632991     5.008527565
 H      -10.096361770    14.473313236     5.911779877
 H      -10.886437517    14.861366219     8.780312200
 H      -10.942309016    14.932139292    10.550110395
 H      -10.848326534    13.341618946     9.726101437
 H       -6.394318566    14.441790100    10.130341917
 H       -5.221953776    13.477779784    12.053076006
 H       -8.994105932    12.524558668    13.893754694
 H      -10.179501486    13.427798248    11.965142105
 H       -5.185192818    12.441989082    14.119684234
 H       -7.942734877    11.804945766    15.438409121
 H       -7.475915255     9.139558706    15.164298469
 H       -8.366867893     6.937633458    15.679507990
 H       -6.844461046     7.212165914    19.695862200
 H       -5.945796425     9.424958702    19.229737626
 H       -7.993001696     5.273405054    19.093475894
 H       -9.066510664     5.111373434    16.194213807
 H       -8.699310060     3.448204478    19.609917726
 H       -9.587788137     1.247397906    20.121658195
 H      -11.106851705     0.958481817    16.053808767
 H      -10.210870508     3.171037897    15.589770543
 H      -10.019894541    12.247389990     8.144009696
 H       -8.852883350    11.049740113     7.562518415
 H       -7.498330074    12.460139887     8.894333308
 H       -7.158550885    13.043923524     7.267845090
 H       -7.452171964    15.054563422     8.487151994
 H       -9.012341625    14.869282340     7.670310661
 H        2.263218120    -1.029584703     0.044351093
 H        2.261183028     0.546591303     0.875261107
 H        2.274926247     0.475696101    -0.908225942
 H      -10.801649669    -2.475480727    20.262960558
 H      -10.687120336    -0.835235005    20.948474436
 H       -9.315552188    -1.519787853    20.034008952
 H      -13.348761432    -1.683018080    18.918716719
 C      -13.447247410     0.318030210    19.759696511
 C      -13.703781775    -0.240257370    17.334722630
 H      -11.181530515    -1.444843258    16.124026868
 C       -9.175823587    -1.979121658    16.754594246
 C      -11.239794179    -3.332453944    17.191507560
 H       -3.760190360    12.017579243    16.114264914
 C       -3.285557174    10.593006813    17.683079141
 C       -3.785397084     9.999261986    15.304685339
 H       -5.645857555    11.833547008    19.119291935
 C       -5.689846442    13.712923211    18.032049356
 C       -7.704494205    12.376019549    18.693662950
 H       -1.883166385    13.618285364    -0.638913160
 C       -3.165944325    15.171273276     0.169526876
 C       -1.961653561    13.443933565     1.526299393
 H       -5.127349876    13.866688448    -1.885008766
 C       -3.663474722    12.762042944    -3.049645086
 C       -5.881958445    11.871956038    -2.299957788
 H       -0.125864338    -1.937015670    -1.513318618
 C       -2.140160409    -1.127213624    -1.576434021
 C       -0.186774515    -0.229354905    -2.855413487
 H       -1.781084043    -0.909301401     1.441030452
 C       -0.187253974    -2.367256401     1.640403347
 C       -0.303040173    -0.174128685     2.848713782
 H      -13.055054380     0.050369362    20.749257864
 H      -14.542872366     0.308612172    19.851003286
 H      -13.164342504     1.361811007    19.560733047
 H      -13.510911013    -0.932023931    16.505059754
 H      -13.433779877     0.771601029    17.000948929
 H      -14.793977584    -0.232943751    17.479912479
 H       -8.718475124    -0.995586031    16.574524227
 H       -8.985727433    -2.575807292    15.851074293
 H       -8.614943542    -2.460664392    17.566555339
 H      -12.329113004    -3.366019508    17.322309218
 H      -10.785091618    -3.874477344    18.031289938
 H      -11.020539067    -3.923484524    16.290326053
 H       -3.372364184    11.310309622    18.509042292
 H       -2.216000505    10.544193395    17.431622929
 H       -3.552798875     9.599426303    18.069735208
 H       -4.296361756    10.233340194    14.360829606
 H       -4.038399908     8.961229467    15.565176381
 H       -2.708880984    10.007058896    15.083573946
 H       -4.615893512    13.740583760    17.807190610
 H       -5.830741735    14.323496716    18.935342080
 H       -6.212985401    14.239338133    17.220682406
 H       -8.149510728    11.397063934    18.921010080
 H       -8.339738739    12.862971128    17.941096478
 H       -7.798037636    12.975617272    19.610295888
 H       -3.605791777    15.471917923    -0.789832426
 H       -2.333032092    15.864751424     0.355285555
 H       -3.908631572    15.367076147     0.955613742
 H       -1.515410268    12.441754085     1.591111760
 H       -2.638975668    13.558954142     2.385030862
 H       -1.140667541    14.157484974     1.683163514
 H       -2.844292905    13.478433275    -2.908106003
 H       -4.123668606    13.009793450    -4.017157667
 H       -3.218417681    11.763798661    -3.170029935
 H       -6.709467695    11.897219184    -1.577802913
 H       -5.564181804    10.824306852    -2.403593323
 H       -6.310518245    12.159553676    -3.270413962
 H       -2.519052310    -1.696705770    -0.718419724
 H       -2.424946152    -1.698062896    -2.472327809
 H       -2.698043722    -0.181479201    -1.627460296
 H        0.900447404    -0.115261456    -2.953167470
 H       -0.638473260     0.765387859    -2.979954397
 H       -0.511776978    -0.824849416    -3.720590469
 H       -0.465220094    -2.973783732     0.768841689
 H       -0.651477308    -2.851524923     2.511904026
 H        0.897898966    -2.460128141     1.780317377
 H       -0.657205549     0.866448371     2.873755463
 H        0.775290523    -0.161234574     3.055524692
 H       -0.775792695    -0.679732820     3.702772250

