187   

Si        0.000000000     0.000000000     0.000000000
 C        1.865338688     0.000000000     0.000000000
 C       -0.663295706     1.717676042     0.000000000
 C        0.108759998     2.777230869     0.488452391
 C       -0.392290253     4.078228718     0.489007129
 C       -1.676319319     4.349955476     0.008347154
 C       -2.450509888     3.287213614    -0.474556261
 C       -1.952957552     1.986564605    -0.476484093
 C       -2.238072670     5.696701726    -0.008641910
 C       -1.590766263     6.790170556     0.427372025
 C       -2.129842522     8.144712811     0.420854592
 C       -3.409604794     8.446338927    -0.053359134
 C       -3.882849929     9.757726183    -0.039834055
 C       -3.077837120    10.800350573     0.433505711
 C       -1.794325850    10.499967617     0.905132506
 C       -1.329132741     9.188025163     0.902561558
Si       -3.707695688    12.530183664     0.449150612
 C       -2.755352029    13.599625477     1.584991972
 C       -2.147218141    13.178313187     2.701418778
 C       -1.389028837    14.050924259     3.598188276
 C       -0.796392436    13.488796218     4.739844607
 C       -0.068648996    14.269858842     5.620618624
 C        0.113951985    15.644369640     5.362581254
 C       -0.482518141    16.211188746     4.226536946
 C       -1.242651181    15.420273711     3.370991195
 N        0.867588615    16.395034383     6.298344966
 C        2.218288557    15.850157408     6.570891843
 C        0.857866225    17.856774366     6.121657357
 C        2.958896617    15.241514503     5.366225714
 C        3.147831388    16.247779723     4.217758400
 N        3.952813952    15.728789848     3.102722148
 C        3.409104351    14.730625240     2.275735940
 C        2.018034141    14.519199418     2.192067410
 C        1.499559925    13.529301662     1.370443561
 C        2.334018533    12.746927986     0.560666099
 C        3.711591229    12.979682856     0.620451180
 C        4.248033715    13.952584096     1.452068031
 C        5.383212908    15.609193520     3.434081130
 C        1.752596402    11.709498566    -0.295503934
 C        2.480067053    10.920460007    -1.097471028
Si        1.884825849     9.597670012    -2.207979189
 C        2.599196770     9.819256683    -3.890243064
 C        3.171038367    11.037700119    -4.269457391
 C        3.710452321    11.198961238    -5.545345233
 C        3.681900620    10.152056683    -6.470353566
 C        3.102448738     8.934070543    -6.089553304
 C        2.565559545     8.768409954    -4.815932054
 C        4.233639119    10.274980657    -7.815560021
 C        4.815194973    11.382600690    -8.306531876
 C        5.366652465    11.504529486    -9.651937031
 C        5.340336649    10.456468942   -10.575500773
 C        5.879408962    10.616457849   -11.852023395
 C        6.451903929    11.833316942   -12.234981040
 C        6.478872302    12.886720086   -11.310769141
 C        5.944969420    12.722105885   -10.035842140
Si        7.167553039    12.061045569   -13.915390426
 C        6.683605741    10.671250654   -15.061892473
 C        6.552730742    13.725713889   -14.604381696
 C        9.066342363    12.119976386   -13.794093620
 C        2.480125411     7.926135406    -1.515956013
 C       -0.010596819     9.599912762    -2.351582475
 C       -3.502784084    13.260344291    -1.297026970
 C       -5.545417159    12.547709008     0.924332132
 C       -0.650269806    -0.914123093    -1.537991992
 C       -0.631451610    -0.908184828     1.548248823
 H        1.120284601     2.627026351     0.876314997
 H        0.231994256     4.885420152     0.869084793
 H       -3.453401399     3.476273919    -0.852587492
 H       -2.603595353     1.197875535    -0.864134800
 H       -3.250741706     5.769086782    -0.413737409
 H       -0.579225475     6.703950357     0.839292867
 H       -4.051063567     7.654317541    -0.434178303
 H       -4.895026967     9.929896735    -0.415519957
 H       -1.111920182    11.274092424     1.274293943
 H       -0.329961663     8.977149394     1.283838945
 H       -2.722188487    14.659027932     1.284414014
 H       -2.180300453    12.133672278     3.042110511
 H       -0.912686889    12.422834908     4.939999262
 H        0.361211218    13.828824851     6.516613725
 H       -0.364042614    17.266517515     4.001632544
 H       -1.709620731    15.883308580     2.500525451
 H        1.314512401    18.326421843     7.010493561
 H       -0.188122667    18.211035822     6.080005316
 H        1.389271453    18.213309248     5.226107994
 H        5.673781753    16.371330195     4.174910076
 H        5.979723799    15.804144598     2.523403667
 H        5.655249193    14.617953348     3.832560527
 H        1.332081890    15.114731852     2.791232283
 H        0.417894009    13.371483489     1.353375851
 H        4.389647740    12.389982527     0.000908204
 H        5.322495646    14.100751827     1.457837737
 H        0.658515314    11.648127288    -0.229018589
 H        3.579808380    11.017714397    -1.129261221
 H        3.215293510    11.894386684    -3.589067421
 H        4.153888628    12.155233208    -5.816395016
 H        3.069425312     8.107143477    -6.795946485
 H        2.124717296     7.796945245    -4.574595645
 H        4.143626700     9.374721625    -8.430542612
 H        4.904975831    12.282990731    -7.691773478
 H        4.896700669     9.500327210   -10.303984578
 H        5.830261207     9.759943294   -12.529872877
 H        6.912673669    13.860584483   -11.554630156
 H        5.976457365    13.551198157    -9.331394903
 H        2.842432544    16.642150774     7.037853844
 H        2.087778351    15.061789594     7.351598775
 H        3.940637982    14.858093053     5.701131559
 H        2.413503324    14.352100368     4.987059285
 H        2.157577764    16.568332739     3.815928584
 H        3.637363798    17.175415522     4.592091475
 H        2.263888838    -1.028182476    -0.065941180
 H        2.277252405     0.457785230     0.916173730
 H        2.258835186     0.565047759    -0.864821820
 H        7.081488446    10.837307661   -16.078886593
 H        5.584483489    10.591143823   -15.144887098
 H        7.067130552     9.697692322   -14.709689030
 H        6.922858737    14.513623182   -13.885597570
 C        7.114131264    14.058605195   -15.998192468
 C        5.016416640    13.813618866   -14.648123531
 H        9.436957994    12.199938548   -14.856822359
 C        9.598513772    13.334066160   -13.011811937
 C        9.657330028    10.838775864   -13.177446305
 H        1.984356618     7.135383235    -2.150897185
 C        4.003992589     7.745052596    -1.636392119
 C        2.064804757     7.693725653    -0.053436294
 H       -0.403963836     9.852507658    -1.321970497
 C       -0.510757922    10.678500620    -3.329622594
 C       -0.615476252     8.246346254    -2.761094128
 H       -4.042758221    14.250413540    -1.287273744
 C       -2.026267590    13.523948472    -1.641310283
 C       -4.130439852    12.385630803    -2.395286082
 H       -6.085893528    11.990411577     0.105289112
 C       -5.811591310    11.817830866     2.253110527
 C       -6.139215888    13.965188835     1.004776736
 H       -1.775382864    -0.915757687    -1.445920921
 C       -0.285313458    -0.195298058    -2.849537261
 C       -0.184689999    -2.378696945    -1.623555206
 H       -0.165104997    -1.934936726     1.514749043
 C       -0.190304674    -0.225862169     2.856040183
 C       -2.161147015    -1.078535005     1.571377797
 H        8.210953028    14.086857773   -16.029736905
 H        6.772104462    15.055602740   -16.311988181
 H        6.775021959    13.360186305   -16.774596739
 H        4.544123906    13.640841883   -13.670313451
 H        4.566187926    13.110684838   -15.361372776
 H        4.704943821    14.818832354   -14.965847715
 H        9.286678437    14.296903601   -13.435709564
 H       10.698235910    13.335751031   -13.024522966
 H        9.305630764    13.320119786   -11.952464671
 H        9.394773839     9.927328316   -13.729615135
 H        9.356846047    10.691232053   -12.130012726
 H       10.755437691    10.892332390   -13.177612613
 H        4.375552873     7.850451723    -2.665398440
 H        4.289818203     6.735083389    -1.310258174
 H        4.570441815     8.444864715    -1.007682628
 H        0.977448545     7.743764586     0.093546902
 H        2.529968522     8.407582612     0.640865754
 H        2.379518453     6.692669949     0.273004761
 H       -0.120575351    11.683114603    -3.115842758
 H       -1.606927450    10.752480945    -3.277477424
 H       -0.265569364    10.449456322    -4.376377778
 H       -0.413925017     7.444853621    -2.036702879
 H       -0.285373125     7.903141156    -3.749319770
 H       -1.711509977     8.329812738    -2.813657053
 H       -1.542186982    14.242744369    -0.965768441
 H       -1.942779147    13.949081522    -2.651571372
 H       -1.414728572    12.608500161    -1.642119670
 H       -5.208304746    12.227519112    -2.265056360
 H       -3.655705206    11.396945702    -2.479568590
 H       -4.009189268    12.868175885    -3.376263390
 H       -5.471408974    10.772738393     2.252321555
 H       -6.891093184    11.788973577     2.458631381
 H       -5.347054939    12.316211287     3.116048973
 H       -6.052966591    14.529352194     0.067476473
 H       -5.690431117    14.571516330     1.804249968
 H       -7.214296039    13.909398279     1.229891277
 H       -0.632791219     0.847063078    -2.885294468
 H       -0.755006983    -0.705218864    -3.702676678
 H        0.794508301    -0.190049818    -3.049566350
 H       -0.473989218    -2.978798711    -0.751171404
 H        0.901489582    -2.476437357    -1.751668703
 H       -0.641508367    -2.866884253    -2.496789088
 H        0.899119443    -0.139172510     2.957098043
 H       -0.532773368    -0.812582795     3.720640323
 H       -0.618201890     0.779549189     2.978565377
 H       -2.548945198    -1.647905538     0.717177251
 H       -2.697545331    -0.119676132     1.608275140
 H       -2.463947090    -1.633139794     2.471514901

