187   

Si        0.000000000     0.000000000     0.000000000
 C        1.865481943     0.000000000     0.000000000
 C       -0.674306466     1.713149024     0.000000000
 C        0.148676497     2.811595916     0.268004525
 C       -0.371938098     4.105504626     0.265586985
 C       -1.725683389     4.330575147     0.002776943
 C       -2.549890398     3.228621349    -0.262166184
 C       -2.032500788     1.936165270    -0.263901083
 C       -2.312777159     5.666495301    -0.010016939
 C       -1.632842432     6.801859269     0.223989432
 C       -2.216863312     8.138925747     0.211927518
 C       -1.387266864     9.237660424     0.474028712
 C       -1.898619783    10.532740242     0.473630700
 C       -3.257702866    10.757109033     0.222502699
 C       -4.088907760     9.662467228    -0.038164225
 C       -3.570837598     8.367969835    -0.047525404
Si       -3.947691700    12.461996975     0.218653770
 C       -5.749008030    12.378756753     0.515606664
 C       -6.695923913    12.981421945    -0.214325929
 C       -8.129701137    12.882030099     0.067455429
 C       -9.031795198    13.558748076    -0.768529372
 C      -10.396359795    13.496182243    -0.544250466
 C      -10.905806477    12.718579806     0.517118582
 C      -10.006796832    12.044441630     1.357770636
 C       -8.636692098    12.146945727     1.140600979
 N      -12.308323976    12.690222009     0.701040046
 C      -13.090305931    12.282771603    -0.490219143
 C      -12.793225955    12.081565931     1.950641444
 C      -12.433558624    11.230708916    -1.399099595
 C      -12.148111418     9.902969352    -0.674594579
 N      -11.179454418     9.049995258    -1.386562579
 C      -11.535632520     8.606842776    -2.672222415
 C      -12.891466566     8.379728242    -2.993334492
 C      -13.249571371     7.942961172    -4.258436952
 C      -12.280691620     7.664068961    -5.232521399
 C      -10.936335817     7.857232533    -4.902153660
 C      -10.560652156     8.312781244    -3.645594615
 C       -9.784489399     9.484711213    -1.196195271
 C      -12.714567267     7.205396005    -6.553048121
 C      -11.878824943     6.910352499    -7.557268615
Si      -12.364631093     6.334944558    -9.221998535
 C      -11.517001246     7.346808821   -10.503549714
 C      -10.963388244     8.588621594   -10.174935047
 C      -10.320858741     9.355804364   -11.146072188
 C      -10.226984579     8.905338851   -12.465587827
 C      -10.787810016     7.663565517   -12.793100906
 C      -11.426043478     6.892524346   -11.825286467
 C       -9.564445802     9.673786311   -13.514333222
 C       -8.987616186    10.874338805   -13.335021994
 C       -8.325111635    11.642699654   -14.383809626
 C       -8.226915190    11.190747090   -15.702190607
 C       -7.584333604    11.958328489   -16.673552083
 C       -7.029597060    13.199716725   -16.347042602
 C       -7.126950649    13.655604619   -15.025215514
 C       -7.764590746    12.885006586   -14.057079371
Si       -6.178387954    14.224682668   -17.617323075
 C       -6.515329537    13.599316441   -19.342193568
 C       -6.784421166    16.020460852   -17.439205632
 C       -4.300475439    14.186326007   -17.308461475
 C      -11.841229986     4.515213228    -9.412401183
 C      -14.246087808     6.459291581    -9.469659306
 C       -3.147795323    13.482985598     1.609909304
 C       -3.558346733    13.286122498    -1.449673864
 C       -0.658464053    -0.899038499    -1.543136638
 C       -0.612794012    -0.924624156     1.546651408
 H        1.215190534     2.698793299     0.481563237
 H        0.291040390     4.943491473     0.473077139
 H       -3.607268675     3.381815705    -0.470136029
 H       -2.723178027     1.116078201    -0.479815093
 H       -3.383877832     5.693835242    -0.230637860
 H       -0.561592846     6.773149488     0.444323787
 H       -0.329975277     9.080047519     0.678372870
 H       -1.203756569    11.351462603     0.679635044
 H       -5.158015397     9.780773122    -0.243603527
 H       -4.235615835     7.531938763    -0.257217338
 H       -6.012737389    11.769704920     1.397143375
 H       -6.468572994    13.600832958    -1.091445996
 H       -8.654087538    14.151781134    -1.602233809
 H      -11.082410551    14.051888944    -1.179564571
 H      -10.365220916    11.441202271     2.186099483
 H       -7.955283581    11.628099753     1.817089111
 H      -13.865184003    12.320623557     2.069086942
 H      -12.271199588    12.541908947     2.808988809
 H      -12.671280170    10.988879428     2.005775475
 H       -9.640714641     9.877300150    -0.173480921
 H       -9.467990431    10.271725193    -1.900696913
 H       -9.116359716     8.611267445    -1.303975815
 H      -13.666465266     8.551331318    -2.252581134
 H      -14.305033158     7.799442186    -4.491498256
 H      -10.160499184     7.646664450    -5.640459298
 H       -9.504925376     8.447554789    -3.431594002
 H      -13.805760575     7.128125514    -6.645707125
 H      -10.786305729     6.989190241    -7.427346389
 H      -11.012020297     8.995234638    -9.159343181
 H       -9.892630832    10.316252887   -10.865178446
 H      -10.725193485     7.294982216   -13.815041833
 H      -11.842701316     5.931316737   -12.138220626
 H       -9.563145536     9.197416045   -14.499072202
 H       -8.989100968    11.351054325   -12.350347069
 H       -8.653328180    10.229561903   -15.983229271
 H       -7.538912216    11.551653312   -17.687561846
 H       -6.712532944    14.618079585   -14.712052107
 H       -7.828964991    13.255163556   -13.035602736
 H      -14.093226339    11.929164178    -0.167014126
 H      -13.267079850    13.214132905    -1.081810219
 H      -13.082137782    11.047203860    -2.278270097
 H      -11.489688878    11.631172216    -1.822268340
 H      -11.743805419    10.092997025     0.346114020
 H      -13.087917947     9.326941049    -0.523556557
 H        2.263439495    -1.029593918    -0.044017626
 H        2.275048309     0.475991511     0.908093265
 H        2.261254010     0.545943773    -0.875669722
 H       -6.036100456    14.244282004   -20.100241714
 H       -7.599909198    13.588028007   -19.554267732
 H       -6.132376644    12.574104564   -19.488004327
 H       -6.504818849    16.338912126   -16.392866179
 C       -6.114050904    16.995509029   -18.423341500
 C       -8.313015460    16.142194324   -17.575201390
 H       -3.841497211    14.784774977   -18.147735313
 C       -3.880432403    14.834053041   -15.976851436
 C       -3.722416813    12.760429663   -17.366903245
 H      -12.179946173     4.200564913   -10.441604635
 C      -10.315009452     4.330630480    -9.338378352
 C      -12.510429000     3.585603470    -8.385080502
 H      -14.709333023     5.910534481    -8.599045163
 C      -14.746103147     7.915362758    -9.441457304
 C      -14.739854965     5.793727273   -10.766662941
 H       -2.045921137    13.525817022     1.369857975
 C       -3.676884777    14.926236327     1.677431810
 C       -3.307546939    12.823677067     2.991397887
 H       -4.086525538    14.283267391    -1.435119390
 C       -2.056635824    13.546005850    -1.664411900
 C       -4.094856663    12.475024957    -2.643463594
 H       -1.783375600    -0.892985104    -1.447759655
 C       -0.293485968    -0.171306562    -2.849664868
 C       -0.202043506    -2.365543159    -1.641259931
 H       -0.115740232    -1.937110563     1.512593827
 C       -0.191906043    -0.229891816     2.854761535
 C       -2.136125734    -1.142998149     1.573039529
 H       -5.020098581    17.017941784   -18.336036502
 H       -6.458771479    18.021448282   -18.228027289
 H       -6.361701073    16.783629779   -19.471889355
 H       -8.863736741    15.510130186   -16.863812426
 H       -8.675080736    15.898487285   -18.582760446
 H       -8.628373564    17.176057857   -17.374747754
 H       -4.184907514    15.884435449   -15.887431345
 H       -2.784555641    14.824041571   -15.884116717
 H       -4.265665257    14.294403777   -15.100184206
 H       -3.904333428    12.254588643   -18.323790120
 H       -4.107761713    12.110187846   -16.568292449
 H       -2.630881395    12.790862365   -17.238453022
 H       -9.767294042     4.933007819   -10.076845380
 H      -10.052057737     3.282902566    -9.542054485
 H       -9.902899048     4.564473582    -8.347068517
 H      -13.606745197     3.598722822    -8.434770982
 H      -12.221792512     3.815107781    -7.349087663
 H      -12.206771847     2.544529046    -8.565196082
 H      -14.470013462     8.457878881    -8.526885038
 H      -15.843380247     7.939183287    -9.496045852
 H      -14.382366175     8.506263111   -10.294603594
 H      -14.505186316     4.723289934   -10.824192774
 H      -14.344443125     6.275031873   -11.672163341
 H      -15.834826825     5.870744891   -10.834373932
 H       -3.518625954    15.492063582     0.750271670
 H       -3.154486528    15.481959690     2.469427720
 H       -4.747806767    14.979097674     1.920667300
 H       -2.914963431    11.797813171     3.033110026
 H       -4.350999448    12.794183948     3.333821859
 H       -2.751312490    13.395463742     3.748030883
 H       -1.615548587    14.206225690    -0.906815773
 H       -1.896290616    14.042053379    -2.632931803
 H       -1.461883606    12.621992310    -1.693825013
 H       -5.174332560    12.277956238    -2.593077808
 H       -3.589784184    11.505050347    -2.760080995
 H       -3.924192627    13.024272017    -3.580139000
 H       -0.639121322     0.872100460    -2.876242973
 H       -0.766999165    -0.672924453    -3.705667569
 H        0.785685405    -0.167427702    -3.052200239
 H       -0.492373743    -2.970566003    -0.772656464
 H        0.883144674    -2.468664890    -1.773223018
 H       -0.664236852    -2.844210077    -2.516943351
 H        0.894271864    -0.107807888     2.954604916
 H       -0.514303528    -0.827812540     3.719275106
 H       -0.650936571     0.761575570     2.978398299
 H       -2.511367898    -1.705184402     0.708615706
 H       -2.700955471    -0.202179513     1.635522806
 H       -2.415965090    -1.726617286     2.462277240

