187   

Si        0.000000000     0.000000000     0.000000000
 C        1.865314439     0.000000000     0.000000000
 C       -0.648620631     1.721306489     0.000000000
 C       -0.134430042     2.632614949     0.930686639
 C       -0.597759445     3.945451263     0.964732669
 C       -1.555585761     4.388029243     0.047851889
 C       -2.070496054     3.476068497    -0.880856061
 C       -1.637050688     2.152145784    -0.891804006
 C       -2.062239122     5.754818566     0.055175572
 C       -1.669795141     6.704296452     0.922348811
 C       -2.173447546     8.072791624     0.933889307
 C       -1.682657208     8.968105859     1.891414082
 C       -2.138819158    10.284449097     1.935284927
 C       -3.110806021    10.724984267     1.032827897
 C       -3.602500046     9.831109712     0.072199873
 C       -3.129175074     8.524134054     0.018518004
Si       -3.764671720    12.446296124     1.025979726
 C       -3.752314009    12.988897202    -0.722219150
 C       -2.834075955    12.498585503    -1.566601044
 C       -2.711688742    12.844550964    -2.979926285
 C       -1.685844301    12.231557753    -3.716993118
 C       -1.510560111    12.511571188    -5.059714130
 C       -2.386198343    13.402623895    -5.713168617
 C       -3.403058491    14.029025806    -4.976180069
 C       -3.539652300    13.768832444    -3.615862325
 N       -2.163839628    13.656525973    -7.090812320
 C       -2.061631047    12.450611779    -7.934468613
 C       -2.937770362    14.745370260    -7.702317429
 C       -3.382304872    11.766819437    -8.349592154
 C       -3.883150883    10.668209239    -7.391372116
 N       -4.419630074    11.154488536    -6.096486048
 C       -4.709485607    10.137699289    -5.153091707
 C       -3.783125892     9.089009693    -4.961532390
 C       -4.036116353     8.079496551    -4.047076594
 C       -5.169120911     8.115989467    -3.220829788
 C       -6.058351515     9.182335354    -3.373308347
 C       -5.836647328    10.182754157    -4.312671839
 C       -5.498133188    12.146559210    -6.269423277
 C       -5.394907910     7.025337650    -2.268640468
 C       -6.443728410     6.966139001    -1.437091149
Si       -6.818495650     5.654886260    -0.214580096
 C       -6.185469886     4.004616392    -0.734936164
 C       -5.884969237     3.767627067    -2.082886350
 C       -5.405844778     2.527809989    -2.495348781
 C       -5.225331853     1.485816431    -1.576343932
 C       -5.535940845     1.718898696    -0.233777362
 C       -6.015108832     2.961502404     0.182167886
 C       -4.719961000     0.208608386    -2.068451208
 C       -4.494317295    -0.879287271    -1.312660136
 C       -3.987765688    -2.149413281    -1.824887413
 C       -3.686586426    -2.349694535    -3.175175421
 C       -3.204384384    -3.578313352    -3.625943065
 C       -3.027537630    -4.644018732    -2.737258589
 C       -3.337260894    -4.448706172    -1.384540842
 C       -3.811124535    -3.218496651    -0.936319499
Si       -2.391091488    -6.271119201    -3.322828774
 C       -2.641698262    -6.471761665    -5.160150846
 C       -0.536513410    -6.426444073    -2.924924026
 C       -3.307605160    -7.650219725    -2.382046613
 C       -6.276893741     6.119529442     1.546835203
 C       -8.725037322     5.533628195    -0.166434055
 C       -5.552877983    12.430273683     1.673238315
 C       -2.715988161    13.607042896     2.100508903
 C       -0.655441658    -0.940499268    -1.515299582
 C       -0.643178772    -0.900370478     1.551152188
 H        0.635194498     2.351950388     1.655296755
 H       -0.195420146     4.630347376     1.708477398
 H       -2.837130607     3.793196257    -1.587692341
 H       -2.101549711     1.476236314    -1.616590863
 H       -2.808299904     5.972544346    -0.715848206
 H       -0.923376765     6.484634033     1.690141406
 H       -0.934570562     8.637846647     2.608388779
 H       -1.717133681    10.941279835     2.699586244
 H       -4.352445281    10.124435287    -0.673174544
 H       -3.517037621     7.853423094    -0.749454017
 H       -4.503501513    13.723721438    -1.030193873
 H       -2.079813347    11.756543608    -1.253676575
 H       -1.020264909    11.519443649    -3.226959746
 H       -0.696285229    12.047351236    -5.609250103
 H       -4.083581993    14.726123361    -5.451050965
 H       -4.322921597    14.275348195    -3.052879303
 H       -2.578156410    14.910415772    -8.732421913
 H       -2.747532065    15.677540904    -7.138658689
 H       -4.024733601    14.574716372    -7.737637074
 H       -5.171699043    12.942225246    -6.958203378
 H       -5.686369418    12.644826319    -5.298992487
 H       -6.437509252    11.716238669    -6.649376710
 H       -2.861168947     9.068047204    -5.536812995
 H       -3.320773336     7.261908065    -3.947196252
 H       -6.946509444     9.244698835    -2.742898796
 H       -6.557395101    10.990515493    -4.386960270
 H       -4.617007535     6.251020243    -2.301269386
 H       -7.193640932     7.776147342    -1.429379326
 H       -6.021604928     4.534531413    -2.852706293
 H       -5.174816422     2.368221074    -3.546702339
 H       -5.400793148     0.928637340     0.502263671
 H       -6.239881512     3.084714544     1.245540892
 H       -4.523216178     0.183981329    -3.145039700
 H       -4.690573064    -0.860221702    -0.236745878
 H       -3.821310761    -1.540502232    -3.890758019
 H       -2.981965941    -3.670969621    -4.692432461
 H       -3.220584361    -5.244480801    -0.643452807
 H       -4.051718310    -3.092528756     0.118191271
 H       -1.511276225    12.758746657    -8.855670020
 H       -1.406703338    11.709624063    -7.422566406
 H       -4.167054013    12.527648029    -8.511711446
 H       -3.230966070    11.295001455    -9.342438002
 H       -4.651234749    10.058835952    -7.922883796
 H       -3.026909042     9.986732251    -7.172252154
 H        2.263857976    -1.029725720    -0.004978319
 H        2.276078068     0.516147870     0.884515376
 H        2.257369712     0.514292485    -0.896390455
 H       -2.300942596    -7.465266559    -5.502304113
 H       -2.084955996    -5.712715021    -5.736875184
 H       -3.710785407    -6.378302547    -5.424807032
 H       -0.252425463    -7.477363179    -3.223894698
 C        0.339453402    -5.453700472    -3.734656321
 C       -0.218407439    -6.254684842    -1.428938827
 H       -3.046311157    -7.509829763    -1.292932789
 C       -4.837029641    -7.540509516    -2.518677481
 C       -2.870307081    -9.068231304    -2.790389436
 H       -6.953289119     5.522979074     2.227434173
 C       -4.828737748     5.750703532     1.894074285
 C       -6.487713068     7.613452067     1.855333373
 H       -9.089095018     6.527606647     0.221699842
 C       -9.329310750     5.313288804    -1.564580833
 C       -9.242851095     4.433300634     0.775223946
 H       -5.898444641    13.503607920     1.655322785
 C       -6.502042771    11.610043484     0.779783087
 C       -5.662403074    11.914170367     3.119061770
 H       -2.691159955    13.142996231     3.128825108
 C       -1.266955313    13.729749690     1.593993509
 C       -3.313834935    15.019817522     2.233790786
 H       -1.781409981    -0.826829521    -1.482866831
 C       -0.161439742    -0.365241205    -2.854929777
 C       -0.340482349    -2.445359390    -1.479744813
 H       -0.251496806    -1.955617138     1.475984425
 C       -0.124976356    -0.295899028     2.868688310
 C       -2.180248259    -0.960610380     1.608132331
 H        0.237897658    -5.577447693    -4.820373444
 H        1.401322720    -5.623992321    -3.504949635
 H        0.140733531    -4.398254578    -3.499383615
 H       -0.736027468    -6.978543488    -0.787085736
 H       -0.452134241    -5.246741969    -1.055741570
 H        0.856777412    -6.405497614    -1.253683009
 H       -5.234269363    -6.568933775    -2.191608983
 H       -5.327507222    -8.299419668    -1.892562587
 H       -5.189540770    -7.712285965    -3.544453094
 H       -1.797571381    -9.251267742    -2.647729012
 H       -3.115110378    -9.308482628    -3.833539433
 H       -3.392756891    -9.813974406    -2.173423149
 H       -4.534417697     4.733448309     1.604977316
 H       -4.667161875     5.821102216     2.978645610
 H       -4.106151825     6.441406887     1.435095697
 H       -7.517409618     7.957366835     1.704349321
 H       -5.822242347     8.264583096     1.265555687
 H       -6.245612966     7.816185607     2.908674852
 H       -9.052168257     6.091044679    -2.289026975
 H      -10.426852656     5.321981190    -1.507608503
 H       -9.052325205     4.342563590    -2.000226426
 H       -8.935420940     4.569821381     1.819762642
 H       -8.934221479     3.424691085     0.464596405
 H      -10.342463814     4.428473436     0.779176302
 H       -6.494623815    11.927774695    -0.272025202
 H       -7.537449920    11.720741513     1.129851730
 H       -6.282255498    10.532227755     0.803420324
 H       -5.080328392    12.504797919     3.837925413
 H       -5.352249415    10.864341523     3.222560647
 H       -6.707077355    11.960565469     3.457849175
 H       -0.746174586    12.765734941     1.514443414
 H       -0.674928522    14.344122373     2.286298720
 H       -1.200410115    14.219521531     0.611201815
 H       -4.318249728    15.028003005     2.675516876
 H       -3.363846229    15.554502430     1.275161504
 H       -2.684269969    15.633231331     2.894429054
 H       -0.369378457     0.706403224    -2.975701761
 H       -0.667223057    -0.874181813    -3.688061030
 H        0.915516763    -0.511758456    -3.009177275
 H       -0.742912431    -2.953020362    -0.593006354
 H        0.731504891    -2.666225126    -1.541691812
 H       -0.816319538    -2.938728133    -2.343304759
 H        0.969692586    -0.259302822     2.931710989
 H       -0.460713778    -0.906017399     3.719139941
 H       -0.507161239     0.718654751     3.049974011
 H       -2.622142794    -1.458812874     0.734080175
 H       -2.641887036     0.033604066     1.694684005
 H       -2.503722862    -1.530995980     2.489494727

