187   

Si        0.000000000     0.000000000     0.000000000
 C        1.865371978     0.000000000     0.000000000
 C       -0.670787929     1.714650861     0.000000000
 C        0.140744805     2.804615798    -0.330507663
 C       -0.375542616     4.100272704    -0.327994300
 C       -1.713174203     4.335251717    -0.000045521
 C       -2.526384325     3.241730545     0.326884783
 C       -2.013936812     1.947387971     0.325495008
 C       -2.296549856     5.672471237     0.015850005
 C       -1.631150041     6.803164746    -0.275740712
 C       -2.220319173     8.138097714    -0.258084576
 C       -1.415075590     9.237892871    -0.583308976
 C       -1.936227542    10.529642768    -0.579112710
 C       -3.280312690    10.748793944    -0.255822570
 C       -4.086946350     9.652677893     0.070251522
 C       -3.559537537     8.362491992     0.072929176
Si       -3.999486508    12.442419517    -0.241101647
 C       -5.811587108    12.280865865    -0.417913613
 C       -6.742978258    12.858245338     0.351089738
 C       -8.182870940    12.680454375     0.146247936
 C       -9.077747184    13.331048711     1.009903586
 C      -10.447229756    13.190967286     0.852857740
 C      -10.959170906    12.366058387    -0.166880048
 C      -10.070865285    11.720318976    -1.036683219
 C       -8.699179966    11.896941347    -0.888399684
 N      -12.377421141    12.266340769    -0.273101058
 C      -12.985373414    11.553981895     0.877583061
 C      -12.875327790    11.760825915    -1.565799402
 C      -12.364660499    10.176075383     1.177887052
 C      -11.401826613    10.233248649     2.382844257
 N      -10.336860691     9.215621576     2.348972603
 C      -10.735159599     7.874453243     2.221206884
 C      -11.902516469     7.428950487     2.879033223
 C      -12.310897034     6.110456358     2.764804065
 C      -11.557272037     5.176785895     2.038439351
 C      -10.386549296     5.613556495     1.412970219
 C       -9.971158289     6.935656119     1.502065073
 C       -9.151992470     9.637214785     1.586037969
 C      -12.033195252     3.795472900     1.948531594
 C      -11.394280356     2.824545788     1.282799063
Si      -11.937235014     1.086608089     1.135114616
 C      -11.905350683     0.570540110    -0.630458945
 C      -11.907448294     1.530656246    -1.649625706
 C      -11.883305011     1.139493658    -2.986067842
 C      -11.867231802    -0.216819396    -3.336156860
 C      -11.871477061    -1.172701306    -2.316018883
 C      -11.891300249    -0.784962712    -0.977122803
 C      -11.842107589    -0.576857973    -4.750049763
 C      -11.820761194    -1.836122251    -5.218791360
 C      -11.795636228    -2.196396778    -6.632553650
 C      -11.791343642    -1.243022457    -7.653949317
 C      -11.766996265    -1.632333784    -8.993078262
 C      -11.740359363    -2.986724443    -9.339770280
 C      -11.743989390    -3.945155324    -8.317165050
 C      -11.773591443    -3.553541712    -6.981660869
Si      -11.708019695    -3.517412494   -11.102124123
 C      -11.326906564    -2.091060509   -12.242257288
 C      -10.392628506    -4.880413399   -11.290786144
 C      -13.402805572    -4.242888431   -11.576429052
 C      -10.739566097    -0.008083989     2.130112272
 C      -13.694631860     0.852791606     1.822875505
 C       -3.531271464    13.313865680     1.380942301
 C       -3.322268247    13.449293188    -1.703821313
 C       -0.621044374    -0.916954237    -1.547772669
 C       -0.658030364    -0.904355400     1.540360510
 H        1.194903756     2.683687772    -0.594824530
 H        0.277774168     4.931692964    -0.585991564
 H       -3.571604304     3.402772269     0.584908528
 H       -2.696198252     1.133947668     0.588443617
 H       -3.355056108     5.705146240     0.291517195
 H       -0.573229775     6.772382015    -0.551316573
 H       -0.369228678     9.084038840    -0.842144450
 H       -1.261305784    11.349644350    -0.838324080
 H       -5.143607935     9.765640042     0.335564654
 H       -4.205456897     7.525893969     0.334518987
 H       -6.098044024    11.639506610    -1.270288162
 H       -6.498899236    13.510046885     1.198867363
 H       -8.692674282    13.964272008     1.809435525
 H      -11.135120765    13.724805975     1.505648282
 H      -10.440780828    11.080512341    -1.833007834
 H       -8.024445256    11.401072404    -1.588381836
 H      -13.963558449    11.943434545    -1.614633881
 H      -12.695272676    10.688487010    -1.737700925
 H      -12.416392119    12.336814971    -2.388094999
 H       -8.906110625    10.688685472     1.824643678
 H       -9.281028546     9.564129605     0.493479537
 H       -8.281685534     9.029890576     1.893314437
 H      -12.487946030     8.121146244     3.476941993
 H      -13.227132812     5.792497148     3.262993835
 H       -9.781198810     4.908474023     0.840776112
 H       -9.058440747     7.233138664     0.995078809
 H      -12.977581789     3.628237515     2.482606167
 H      -10.441481971     3.024857985     0.764407930
 H      -11.924956689     2.604195057    -1.434475100
 H      -11.879529749     1.899151691    -3.765423199
 H      -11.859418713    -2.232890104    -2.561317558
 H      -11.891824895    -1.577121967    -0.223404606
 H      -11.841524936     0.273314758    -5.438633577
 H      -11.821346074    -2.686285050    -4.530488626
 H      -11.807813793    -0.182154363    -7.410740755
 H      -11.765541476    -0.840791710    -9.747538518
 H      -11.723233690    -5.018083632    -8.528158664
 H      -11.777419413    -4.312558325    -6.201724395
 H      -12.905042429    12.226062344     1.761334231
 H      -14.074802077    11.449114516     0.679610524
 H      -13.156267247     9.428348957     1.367730999
 H      -11.827220412     9.796214353     0.287280755
 H      -10.919388929    11.236705704     2.444888758
 H      -11.967764980    10.111114748     3.334102600
 H        2.263564460    -1.029060697     0.053097197
 H        2.260634511     0.553974464     0.870881388
 H        2.275341610     0.468002778    -0.911984924
 H      -11.264659589    -2.426963407   -13.292766863
 H      -10.357828367    -1.626112035   -11.984895858
 H      -12.102097421    -1.306652002   -12.189553101
 H      -10.717956647    -5.720201988   -10.610079826
 C      -10.293070239    -5.444230827   -12.719351790
 C       -8.996451097    -4.419232121   -10.834843346
 H      -13.331818204    -4.488504783   -12.675448279
 C      -13.754213978    -5.537218558   -10.821335372
 C      -14.550379487    -3.234142581   -11.385817481
 H      -11.131038074    -1.062114112     2.036678852
 C       -9.308472730     0.018601433     1.563954964
 C      -10.695320617     0.353368938     3.625053628
 H      -13.676944281     1.278567141     2.867975890
 C      -14.750350611     1.622308969     1.007931782
 C      -14.124197707    -0.622127017     1.918313353
 H       -4.088110210    14.295491387     1.379000175
 C       -3.968767310    12.515551782     2.622842731
 C       -2.027217205    13.619678439     1.494675250
 H       -2.208268412    13.524981420    -1.538098903
 C       -3.554304457    12.754120949    -3.057186948
 C       -3.892500865    14.876929507    -1.767857560
 H       -0.136387705    -1.935310109    -1.514888410
 C       -2.147130670    -1.115510669    -1.572686718
 C       -0.192226697    -0.226098785    -2.855281508
 H       -1.782819810    -0.903339847     1.442862403
 C       -0.195713764    -2.369156873     1.636506670
 C       -0.298669105    -0.177764093     2.849098220
 H      -11.239281135    -5.859087146   -13.090031354
 H       -9.564868256    -6.267915569   -12.747589642
 H       -9.944393764    -4.701985094   -13.449596288
 H       -8.978035670    -4.049800361    -9.799424695
 H       -8.574305465    -3.632489833   -11.474054125
 H       -8.290306876    -5.260914133   -10.872818244
 H      -13.023955754    -6.342242440   -10.972050904
 H      -14.718675365    -5.928625615   -11.176631351
 H      -13.868183831    -5.382054934    -9.739174207
 H      -14.419239291    -2.309740773   -11.962856141
 H      -14.700080410    -2.951314375   -10.333811806
 H      -15.499388525    -3.674660399   -11.723546370
 H       -9.253890775    -0.268292786     0.504327305
 H       -8.674867688    -0.696084953     2.108025169
 H       -8.825468769     0.999941026     1.667856611
 H      -11.671093912     0.274075473     4.121307461
 H      -10.310468838     1.367011193     3.808817733
 H      -10.022067871    -0.332443550     4.158751528
 H      -14.541878063     2.697513267     0.921778240
 H      -15.735157497     1.535653564     1.487822649
 H      -14.869316633     1.229380315    -0.012205023
 H      -13.475751500    -1.223870856     2.567650756
 H      -14.174071611    -1.117796488     0.938631269
 H      -15.134857792    -0.691650253     2.346358744
 H       -5.043353481    12.288619308     2.645137366
 H       -3.754910626    13.089985699     3.535217908
 H       -3.430170907    11.562249090     2.727373938
 H       -1.653231672    14.273290461     0.696334439
 H       -1.405485256    12.713171450     1.507082552
 H       -1.820912796    14.143081853     2.439873207
 H       -3.140310452    11.736781154    -3.101796841
 H       -3.061730808    13.320335893    -3.860722709
 H       -4.616431166    12.692829485    -3.330954244
 H       -3.687873651    15.468897825    -0.866409417
 H       -4.978075180    14.897759386    -1.940357948
 H       -3.438520051    15.426192319    -2.605345309
 H       -2.527112049    -1.684191543    -0.714596180
 H       -2.437169589    -1.683794143    -2.468661322
 H       -2.700744803    -0.167037012    -1.621171353
 H        0.895238774    -0.117677052    -2.955762637
 H       -0.639253642     0.771024177    -2.977684536
 H       -0.522717447    -0.818893543    -3.720338890
 H       -0.479678171    -2.972917382     0.764889969
 H       -0.659687527    -2.852395460     2.508704651
 H        0.889338676    -2.467915186     1.772792477
 H       -0.648239843     0.864294147     2.876986762
 H        0.780097472    -0.169981749     3.053761690
 H       -0.771843028    -0.683032879     3.703115871

