187   

Si        0.000000000     0.000000000     0.000000000
 C        1.865184382     0.000000000     0.000000000
 C       -0.662440210     1.718253562     0.000000000
 C        0.043672815     2.743828319     0.638938075
 C       -0.449166729     4.048135264     0.644745264
 C       -1.660669142     4.356553628     0.019979190
 C       -2.370186613     3.327466513    -0.612605572
 C       -1.880480304     2.023875968    -0.619968613
 C       -2.215535463     5.705849508     0.000238406
 C       -1.639812497     6.780171137     0.566369943
 C       -2.199187216     8.127805125     0.543684613
 C       -1.495136012     9.162424265     1.174443406
 C       -1.991264735    10.463749243     1.177712135
 C       -3.209544959    10.758093066     0.554093296
 C       -3.914319827     9.727635523    -0.077626792
 C       -3.410477945     8.427864880    -0.085553074
Si       -3.884611012    12.469593716     0.545658442
 C       -5.677050616    12.377624970     0.199098922
 C       -6.344486407    13.085019215    -0.720942985
 C       -7.786674988    12.962667769    -0.948211372
 C       -8.386041079    13.753812637    -1.940691565
 C       -9.746138516    13.672130319    -2.190971358
 C      -10.543822700    12.765667278    -1.466064682
 C       -9.951781025    11.978039202    -0.469918827
 C       -8.591145408    12.095552587    -0.205582133
 N      -11.934771283    12.732302480    -1.772959530
 C      -12.209940534    12.216104023    -3.135770307
 C      -12.789259176    12.096351594    -0.753529992
 C      -11.579923826    10.843444612    -3.438785297
 C      -10.289995999    10.977428436    -4.275271281
 N       -9.333972245     9.872678303    -4.081518496
 C       -9.818232153     8.569523559    -4.292476942
 C      -10.723647426     8.329024369    -5.349006430
 C      -11.213420976     7.053722703    -5.575238153
 C      -10.790424054     5.965236011    -4.797813912
 C       -9.871503401     6.200676778    -3.772195185
 C       -9.382795503     7.476369500    -3.520221639
 C       -8.438016912    10.075623428    -2.932403411
 C      -11.340153199     4.638623973    -5.079595136
 C      -11.010950282     3.528664295    -4.404699055
Si      -11.695805323     1.870634631    -4.754326646
 C      -13.405098226     1.960028650    -5.428492179
 C      -14.269739806     2.972231799    -4.995319825
 C      -15.568417391     3.056465516    -5.494471953
 C      -16.036954907     2.125708552    -6.426215333
 C      -15.172869158     1.108581906    -6.851872248
 C      -13.873137599     1.024248467    -6.358351892
 C      -17.387597426     2.173937327    -6.976133729
 C      -18.313405366     3.093380379    -6.654347972
 C      -19.663749353     3.140118919    -7.205311160
 C      -20.128885499     2.211452549    -8.139847787
 C      -21.427980053     2.293063387    -8.641012391
 C      -22.289850489     3.311010470    -8.221211523
 C      -21.825679861     4.244014858    -7.283926403
 C      -20.530331160     4.156860072    -6.781701341
Si      -24.007063294     3.432628347    -8.872952816
 C      -24.258130318     2.329251096   -10.355958672
 C      -25.239956533     2.920672954    -7.516094675
 C      -24.340117028     5.247723853    -9.340065057
 C      -10.548120259     0.979506172    -5.982735638
 C      -11.732960875     0.882968265    -3.128597183
 C       -3.626433444    13.273496298     2.248741799
 C       -2.975999074    13.498217604    -0.768764403
 C       -0.646055726    -0.928942265    -1.531151494
 C       -0.634866964    -0.899319998     1.552516745
 H        0.996825080     2.563946688     1.144228184
 H        0.121808746     4.828705338     1.144229775
 H       -3.316211147     3.545701713    -1.104707505
 H       -2.479938074     1.263186933    -1.127499185
 H       -3.170229643     5.799040683    -0.526186890
 H       -0.685151158     6.688766261     1.092277201
 H       -0.548761996     8.949511593     1.667915130
 H       -1.398396272    11.230779458     1.683271003
 H       -4.869077201     9.901592205    -0.585196196
 H       -3.974292605     7.643632339    -0.587925556
 H       -6.202194466    11.660567952     0.854224623
 H       -5.859194488    13.813712653    -1.382159894
 H       -7.776993574    14.450707127    -2.516850435
 H      -10.208711242    14.313999815    -2.938140131
 H      -10.545082417    11.272344629     0.104646874
 H       -8.152720668    11.486858160     0.587048231
 H      -13.843169341    12.330251679    -0.986920203
 H      -12.574127222    12.538408317     0.234917448
 H      -12.683409016    11.002628561    -0.685742223
 H       -8.076395099    11.120900437    -2.919685721
 H       -7.546899756     9.432180448    -3.043507944
 H       -8.914221898     9.875161907    -1.958727717
 H      -11.041613073     9.146639345    -5.989337925
 H      -11.928753766     6.892788456    -6.382885349
 H       -9.525909292     5.372083320    -3.152549096
 H       -8.674332302     7.615483722    -2.709814918
 H      -12.066060129     4.637845862    -5.905335342
 H      -10.272962360     3.554983705    -3.588800411
 H      -13.958999097     3.726784517    -4.264397461
 H      -16.219389359     3.856794409    -5.147601265
 H      -15.518074119     0.373666118    -7.576312920
 H      -13.245375579     0.208683118    -6.727226353
 H      -17.615653016     1.384166318    -7.697987446
 H      -18.086123400     3.883069565    -5.932235506
 H      -19.477059841     1.411302662    -8.485788326
 H      -21.734703633     1.537284934    -9.369329144
 H      -22.454512884     5.061285279    -6.919570723
 H      -20.188589749     4.889522962    -6.053056465
 H      -13.313638302    12.169363874    -3.267344083
 H      -11.854859941    12.983270723    -3.859998237
 H      -11.359718114    10.307173880    -2.495414394
 H      -12.302225523    10.195716823    -3.968775832
 H      -10.537821725    11.035347652    -5.359393542
 H       -9.768020767    11.932691368    -4.034185419
 H        2.263631914    -1.028682380    -0.056310379
 H        2.277748603     0.467603515     0.910769892
 H        2.257949641     0.557346026    -0.870250117
 H      -25.278189806     2.439185940   -10.765476173
 H      -24.114741250     1.264183125   -10.102779970
 H      -23.547651022     2.583052244   -11.163574014
 H      -26.258464749     2.959856152    -8.000242543
 C      -25.003724243     1.483512571    -7.016539967
 C      -25.253083035     3.867996843    -6.303035154
 H      -24.213796196     5.840312116    -8.387535151
 C      -23.328028911     5.786879578   -10.367155987
 C      -25.766056642     5.495498172    -9.863358757
 H      -10.982927818    -0.051361789    -6.126924223
 C      -10.505369819     1.678458802    -7.353456121
 C       -9.109231829     0.818336346    -5.460278281
 H      -10.667001743     0.846403321    -2.761208577
 C      -12.587378248     1.570453002    -2.048360260
 C      -12.226042684    -0.562991674    -3.310894087
 H       -2.509418443    13.316128758     2.405095193
 C       -4.173626766    14.709438987     2.326270126
 C       -4.234027431    12.441399758     3.392058701
 H       -3.502857302    14.495680720    -0.802289492
 C       -1.497011893    13.752770179    -0.427410880
 C       -3.057900075    12.863668316    -2.169269190
 H       -1.772165588    -0.908860076    -1.454716325
 C       -0.248737040    -0.242812636    -2.850768655
 C       -0.207149341    -2.403519496    -1.583707951
 H       -0.176314956    -1.929594109     1.521550197
 C       -0.187630175    -0.217056722     2.858211907
 C       -2.165873760    -1.057408901     1.576499333
 H      -25.058953666     0.729784504    -7.812447746
 H      -25.773027587     1.209344692    -6.280448684
 H      -24.035645601     1.361487936    -6.509519292
 H      -25.493275976     4.906599958    -6.563077463
 H      -24.301966376     3.868506106    -5.752133469
 H      -26.021716134     3.546805741    -5.584906648
 H      -22.283558143     5.694942639   -10.036240849
 H      -23.501579007     6.858377667   -10.541054643
 H      -23.408587783     5.297883778   -11.346984290
 H      -26.548033567     5.199933923    -9.152017752
 H      -25.968173924     4.984488623   -10.814013190
 H      -25.914408868     6.568357377   -10.054328658
 H      -11.493546894     1.783011735    -7.822352906
 H       -9.891176085     1.097254196    -8.055316634
 H      -10.055420553     2.681166917    -7.306861493
 H       -9.047050322     0.256341545    -4.519916994
 H       -8.598875449     1.780430222    -5.311438224
 H       -8.505109127     0.261078819    -6.190711497
 H      -12.259658733     2.593581856    -1.818690416
 H      -12.527518041     1.008268256    -1.105772685
 H      -13.653982771     1.614680862    -2.311849636
 H      -11.607251196    -1.150890471    -4.000654419
 H      -13.265967237    -0.619341228    -3.663369245
 H      -12.200723705    -1.093594384    -2.348105815
 H       -3.721931306    15.388343497     1.591462546
 H       -3.959735023    15.140828678     3.314849546
 H       -5.264509983    14.759868616     2.199290883
 H       -3.860265986    11.408225719     3.425950655
 H       -5.331013786    12.396935633     3.353721937
 H       -3.978066778    12.891289982     4.362129436
 H       -1.354135478    14.297348515     0.514623908
 H       -1.031909015    14.369525361    -1.210496303
 H       -0.903878785    12.828689450    -0.376205685
 H       -4.085827172    12.685176146    -2.513224124
 H       -2.519748478    11.906679703    -2.234980253
 H       -2.594112289    13.527722567    -2.912265117
 H       -0.567173495     0.807671757    -2.909527585
 H       -0.722131978    -0.755543139    -3.700172761
 H        0.833084872    -0.269762880    -3.038303668
 H       -0.524935137    -2.983288784    -0.707491502
 H        0.879135623    -2.524334944    -1.688879373
 H       -0.656504508    -2.897487198    -2.457539997
 H        0.902552762    -0.141228894     2.959287470
 H       -0.536299741    -0.797598417     3.724495114
 H       -0.606081734     0.792762047     2.977308238
 H       -2.558442173    -1.625666492     0.723702173
 H       -2.694616504    -0.094126768     1.609977722
 H       -2.473208996    -1.606909374     2.478126329

