187   

Si        0.000000000     0.000000000     0.000000000
 C        1.866572548     0.000000000     0.000000000
 C       -0.667295423     1.714761254     0.000000000
 C        0.146302910     2.782279535    -0.392330018
 C       -0.349153075     4.084768668    -0.395970640
 C       -1.666598775     4.350992506    -0.013010150
 C       -2.482922495     3.280216231     0.374762866
 C       -1.991408033     1.976925997     0.378499569
 C       -2.209974900     5.705810894    -0.007958433
 C       -1.509641149     6.796749230    -0.362891333
 C       -2.018205660     8.163067829    -0.370235037
 C       -1.158191941     9.195626993    -0.768377607
 C       -1.595206725    10.517153425    -0.792794427
 C       -2.907097198    10.837728996    -0.421158425
 C       -3.767483536     9.808535980    -0.024488930
 C       -3.325394952     8.486848053     0.000030796
Si       -3.485236604    12.583244263    -0.453122157
 C       -4.847712668    12.870254256     0.732019592
 C       -4.991915712    12.190740266     1.877605647
 C       -6.075897166    12.408317684     2.835972963
 C       -6.110468663    11.627933006     3.997965668
 C       -7.115679746    11.792564866     4.940055319
 C       -8.075909374    12.806826509     4.785747736
 C       -8.033374287    13.603419585     3.624474522
 C       -7.061649639    13.385166817     2.658842625
 N       -9.123247986    13.023152948     5.712214680
 C       -9.245139749    12.083446241     6.835257177
 C       -9.324212336    14.428727327     6.110068719
 C       -8.220976033    12.277531328     7.970679909
 C       -8.178342487    11.062290706     8.916930254
 N       -7.194158935    10.022628521     8.564887160
 C       -7.456160832     9.207857412     7.448873461
 C       -8.784197591     8.837616576     7.145720811
 C       -9.056129784     8.035875769     6.049937420
 C       -8.023142316     7.491555439     5.272778285
 C       -6.705918822     7.822037670     5.598634886
 C       -6.418934617     8.667616535     6.663883944
 C       -5.803655669    10.472949348     8.746016249
 C       -8.379705377     6.652758227     4.128313134
 C       -7.501831997     6.069294857     3.301523231
Si       -7.975388067     5.024531900     1.876838770
 C       -7.063383318     3.427512815     1.887708292
 C       -6.388888122     2.991035121     3.033911278
 C       -5.701702380     1.779098412     3.028956311
 C       -5.681275666     0.971702942     1.885016980
 C       -6.358083181     1.409658446     0.742525824
 C       -7.039556805     2.624948833     0.741107013
 C       -4.949006500    -0.289746904     1.924216695
 C       -4.850881085    -1.142520261     0.890403736
 C       -4.122210765    -2.405561411     0.917571086
 C       -3.440372596    -2.859628896     2.049016136
 C       -2.756445189    -4.075382577     2.028517911
 C       -2.725399146    -4.853838173     0.867773259
 C       -3.408028225    -4.400211342    -0.269160501
 C       -4.103722098    -3.195558688    -0.240169216
Si       -1.829165353    -6.460398978     0.819408069
 C       -0.690466505    -6.646681604     2.284921813
 C       -3.077659993    -7.894690597     0.815662525
 C       -0.830299869    -6.514190136    -0.801576197
 C       -9.845615825     4.679246471     1.879996452
 C       -7.532561987     5.970381981     0.283222678
 C       -2.045930130    13.755291610    -0.037600382
 C       -4.122652220    12.982501381    -2.200358592
 C       -0.644803841    -0.931637032    -1.530295720
 C       -0.643327065    -0.921846545     1.534517903
 H        1.185056649     2.639581276    -0.701776726
 H        0.306332599     4.897271466    -0.703596011
 H       -3.513561470     3.463341808     0.677209556
 H       -2.675685339     1.179044124     0.687199291
 H       -3.252219298     5.784319476     0.313456081
 H       -0.466581142     6.702910403    -0.681744075
 H       -0.135992358     8.965258838    -1.061568520
 H       -0.878855637    11.279157068    -1.111379098
 H       -4.805728248     9.999133455     0.269296838
 H       -4.012169576     7.703357832     0.317588435
 H       -5.552346358    13.663916884     0.443608139
 H       -4.293125065    11.401321916     2.192658279
 H       -5.354395341    10.857934809     4.159137488
 H       -7.137666917    11.127742134     5.800451757
 H       -8.783898004    14.373086326     3.467808051
 H       -7.065534424    13.995173562     1.755331159
 H      -10.161602644    14.497645422     6.823810321
 H       -9.604563292    15.026635577     5.225441073
 H       -8.431521162    14.882829633     6.568397196
 H       -5.724283418    11.102954922     9.647332024
 H       -5.409323111    11.044813398     7.889335277
 H       -5.158556496     9.591071278     8.915198331
 H       -9.604895618     9.181612169     7.769222558
 H      -10.094069716     7.803852048     5.806993002
 H       -5.882630289     7.419645554     5.005551394
 H       -5.381137731     8.906749131     6.872978521
 H       -9.467185054     6.542380201     4.009484173
 H       -6.416105637     6.200555605     3.430574912
 H       -6.376073625     3.579172168     3.957007604
 H       -5.175932658     1.459378184     3.926809301
 H       -6.354388668     0.803508066    -0.161567297
 H       -7.543672910     2.919197614    -0.183864907
 H       -4.463451208    -0.510056874     2.879163273
 H       -5.339541447    -0.918215029    -0.062856377
 H       -3.440997690    -2.267296828     2.962714198
 H       -2.251624196    -4.385267684     2.947648467
 H       -3.418173273    -4.967304533    -1.204158152
 H       -4.635828989    -2.864462312    -1.130262120
 H      -10.279787676    12.181875595     7.237785697
 H       -9.183052711    11.050792775     6.416212676
 H       -7.216980368    12.473430365     7.548626775
 H       -8.473542341    13.186857832     8.546034849
 H       -7.936156169    11.404147504     9.951260452
 H       -9.184963704    10.593759882     8.996420427
 H        2.263515098    -1.030618761     0.015332365
 H        2.259653169     0.521845299     0.891009675
 H        2.277415323     0.501467163    -0.893053689
 H       -0.126902551    -7.595355032     2.232860890
 H       -1.246657224    -6.643840603     3.238615593
 H        0.047461651    -5.824576772     2.321166216
 H       -2.458538127    -8.838105937     0.829689740
 C       -3.977569582    -7.896165950     2.065146458
 C       -3.973006495    -7.932339501    -0.435691968
 H       -1.593105589    -6.515372531    -1.633745336
 C        0.065987570    -5.276109196    -0.988014317
 C        0.027872586    -7.782857293    -0.948305326
 H      -10.345982644     5.687700645     1.962289178
 C      -10.354546486     4.004923618     0.593503924
 C      -10.279457440     3.824809447     3.085396471
 H       -8.054197032     5.428942243    -0.557055841
 C       -8.025620792     7.427318872     0.295137661
 C       -6.021728054     5.952289644    -0.006045993
 H       -1.272564265    13.601382489    -0.844382020
 C       -2.451995343    15.239862001    -0.046774790
 C       -1.396184352    13.422611000     1.317609280
 H       -4.455074936    14.059971711    -2.173855557
 C       -3.042108831    12.841736188    -3.286497363
 C       -5.335409442    12.116149790    -2.585857512
 H       -0.451539794    -2.024822104    -1.327226401
 C       -2.156509089    -0.745729653    -1.748162847
 C        0.088496821    -0.551566541    -2.829220322
 H       -1.734096252    -1.135546538     1.325917915
 C        0.067148760    -2.266779514     1.768101121
 C       -0.565418689    -0.087673248     2.825390398
 H       -3.417016490    -7.949411471     3.007337338
 H       -4.638942824    -8.774472640     2.051960767
 H       -4.635810695    -7.017077600     2.118411022
 H       -3.409550581    -8.021427614    -1.373038535
 H       -4.629301598    -7.054483517    -0.517624663
 H       -4.638044491    -8.807518891    -0.394768632
 H       -0.494792646    -4.329754572    -0.965956266
 H        0.562662290    -5.314380524    -1.968098610
 H        0.866121474    -5.207757990    -0.239136009
 H       -0.553455766    -8.711893154    -0.888581154
 H        0.832662478    -7.843871730    -0.203619982
 H        0.519115279    -7.792135235    -1.932285666
 H      -10.167492084     4.594633128    -0.312764721
 H      -11.444720086     3.868811698     0.648379230
 H       -9.930797774     3.003000089     0.438508372
 H       -9.988692143     4.249713956     4.055894128
 H       -9.881741324     2.800469175     3.045280426
 H      -11.374175597     3.728830527     3.105788808
 H       -9.111844421     7.519349395     0.420379859
 H       -7.784917689     7.915308028    -0.660501988
 H       -7.551714432     8.035410819     1.080697202
 H       -5.616170615     4.937411290    -0.126949064
 H       -5.436925475     6.457587941     0.776050917
 H       -5.812845217     6.477369902    -0.950302595
 H       -2.856812943    15.575107238    -1.010069933
 H       -1.573691278    15.870561418     0.152792796
 H       -3.188813892    15.485528005     0.730884581
 H       -1.021692253    12.391179124     1.379719111
 H       -2.076799505    13.578301972     2.167127513
 H       -0.529906082    14.075866946     1.492177348
 H       -2.179227476    13.501683181    -3.131168526
 H       -3.458990184    13.108059330    -4.268571150
 H       -2.664796289    11.813492355    -3.383712993
 H       -6.176928022    12.206847944    -1.885220698
 H       -5.087383801    11.048039287    -2.669755840
 H       -5.718861859    12.420533283    -3.569808031
 H       -2.760526702    -1.043537165    -0.879222260
 H       -2.495751612    -1.369355583    -2.586667067
 H       -2.426740806     0.289724817    -2.000113070
 H        1.168914574    -0.738104879    -2.788905364
 H       -0.059327424     0.500278088    -3.110354948
 H       -0.296766352    -1.150314890    -3.666755337
 H        0.010174017    -2.944904009     0.905817594
 H       -0.411068479    -2.801561416     2.602027479
 H        1.124484764    -2.152330185     2.037925144
 H       -1.105308740     0.867710036     2.757326567
 H        0.465203365     0.139142350     3.127459458
 H       -1.019198230    -0.640982586     3.659236457

