187   

Si        0.000000000     0.000000000     0.000000000
 C        1.863998124     0.000000000     0.000000000
 C       -0.682622026     1.708858825     0.000000000
 C        0.095359282     2.795365703     0.412746430
 C       -0.431699803     4.086510085     0.408899034
 C       -1.741599441     4.319740776    -0.017320252
 C       -2.520045617     3.229892412    -0.429676208
 C       -2.000669225     1.938909670    -0.415865084
 C       -2.339084968     5.649217979    -0.040471600
 C       -1.722763113     6.783077079     0.334200434
 C       -2.346582960     8.101754420     0.300311573
 C       -3.661952703     8.292755941    -0.133736997
 C       -4.227818177     9.565040515    -0.153819626
 C       -3.490277711    10.679526160     0.266181339
 C       -2.173804302    10.491406657     0.700979512
 C       -1.609229417     9.217296274     0.714858613
Si       -4.278416710    12.340278886     0.222403447
 C       -3.420788063    13.637689324     1.181957961
 C       -2.690920235    13.453307269     2.290083291
 C       -2.025699395    14.537248382     3.016806106
 C       -1.285283959    14.232371174     4.167603503
 C       -0.638231999    15.223219135     4.888841240
 C       -0.757812038    16.578684300     4.512876166
 C       -1.504201769    16.885122000     3.359432633
 C       -2.102944785    15.874381050     2.618038409
 N       -0.097773234    17.582942993     5.249611209
 C        0.155312371    17.303365285     6.677277565
 C       -0.534418146    18.969411783     5.011794105
 C       -1.103952908    16.935991765     7.483245515
 C       -1.592461475    18.052738392     8.423026669
 N       -1.057115205    17.993279351     9.799731367
 C       -1.174710161    16.757652048    10.467567699
 C       -2.253235381    15.897827205    10.164899762
 C       -2.381321606    14.681574828    10.812766992
 C       -1.507386116    14.313633590    11.846592313
 C       -0.465649417    15.182736663    12.175846375
 C       -0.293026550    16.385226060    11.499440141
 C        0.225479500    18.701760041     9.947034631
 C       -1.705572509    13.013019835    12.483201354
 C       -0.962998488    12.512175926    13.480080882
Si       -1.318071323    10.860243722    14.193772557
 C       -2.052224863     9.817666515    12.863290867
 C       -1.524053443     9.958539078    11.572168600
 C       -2.025319702     9.206346428    10.514857318
 C       -3.062583741     8.289972023    10.717663619
 C       -3.583429332     8.144247322    12.008840909
 C       -3.081050229     8.895160567    13.072217185
 C       -3.604447963     7.489813050     9.623100519
 C       -3.163206641     7.567100991     8.355734092
 C       -3.669188090     6.792246103     7.229595678
 C       -4.699093342     5.857377321     7.351791155
 C       -5.145647524     5.142074470     6.239683755
 C       -4.579665789     5.359635479     4.980450211
 C       -3.548751880     6.302102577     4.854611767
 C       -3.099477785     7.006758515     5.966360515
Si       -5.143575083     4.434826834     3.492717198
 C       -6.798584342     3.622043792     3.769794649
 C       -5.242482544     5.662108886     2.038157242
 C       -3.835810605     3.123710066     3.040711453
 C        0.298083817    10.074587477    14.809400443
 C       -2.518402554    11.030782483    15.656691014
 C       -4.361922374    12.936358460    -1.583411890
 C       -6.051243291    12.168188520     0.899336158
 C       -0.655502611    -0.925926350    -1.527641595
 C       -0.636459720    -0.881384170     1.563909850
 H        1.129471808     2.673830726     0.746647044
 H        0.191916767     4.915710158     0.737744716
 H       -3.543266178     3.391001800    -0.764361916
 H       -2.656374413     1.127007526    -0.742398927
 H       -3.371192768     5.674042350    -0.407762135
 H       -0.691526470     6.768300245     0.695987872
 H       -4.258567619     7.442681529    -0.461627650
 H       -5.260712558     9.648951888    -0.504245925
 H       -1.547621635    11.327275059     1.028654507
 H       -0.582582501     9.092199519     1.053620103
 H       -3.563863656    14.649422845     0.766811701
 H       -2.538195233    12.466015197     2.746165233
 H       -1.204746173    13.195696866     4.498328709
 H       -0.042901265    14.942953630     5.753487752
 H       -1.612876701    17.911598931     3.024868880
 H       -2.657522750    16.141407384     1.717059516
 H        0.048501580    19.661088346     5.642241839
 H       -1.605775288    19.131407424     5.212460363
 H       -0.320260207    19.244296838     3.962834971
 H        0.192068672    19.657312613     9.397978572
 H        1.091617954    18.120875621     9.591566276
 H        0.379860128    18.957693195    11.011429335
 H       -2.987598238    16.177176670     9.414279317
 H       -3.195695281    14.011450218    10.530485824
 H        0.229168127    14.918336525    12.973699336
 H        0.535032538    17.027357849    11.780441876
 H       -2.554614540    12.460011770    12.047914702
 H       -0.127503023    13.069046015    13.921387926
 H       -0.709295677    10.657148157    11.348141185
 H       -1.598030319     9.339581010     9.522275893
 H       -4.388738864     7.435373332    12.189460963
 H       -3.522553065     8.736380759    14.058965295
 H       -4.409973896     6.806093754     9.898907610
 H       -2.353944691     8.258687513     8.095799971
 H       -5.159917104     5.676797688     8.320632662
 H       -5.950711553     4.419386704     6.395321727
 H       -3.069872270     6.515483198     3.893238073
 H       -2.297849106     7.733785626     5.850376781
 H        0.899431893    16.473263784     6.726150241
 H        0.673039811    18.178997385     7.125309028
 H       -1.927565654    16.657635538     6.794091657
 H       -0.909255762    16.007647659     8.058420129
 H       -1.368479293    19.052219521     7.991934810
 H       -2.705671731    18.014905940     8.507225526
 H        2.262401132    -1.029916184    -0.032487268
 H        2.276401885     0.486870927     0.901072614
 H        2.258428390     0.536039711    -0.882581146
 H       -7.129297279     3.072424040     2.871019802
 H       -7.573490803     4.373815742     4.004523695
 H       -6.764187973     2.901857681     4.605847873
 H       -4.170851825     5.929758112     1.795809178
 C       -5.882300666     5.057855086     0.775153242
 C       -5.979114246     6.965813887     2.393423727
 H       -4.019311918     2.864486871     1.957121717
 C       -2.395359878     3.650129777     3.163700612
 C       -3.951371154     1.827789046     3.862676720
 H        0.699096080    10.769279530    15.603091073
 C        0.090673615     8.688939700    15.445793955
 C        1.356907213     9.959456319    13.697743139
 H       -2.708768222     9.981600895    16.026084717
 C       -1.940389045    11.848289343    16.825929887
 C       -3.866910417    11.644798935    15.239166306
 H       -4.884387360    13.935923716    -1.555238589
 C       -2.960979741    13.144700584    -2.186511878
 C       -5.167117448    12.004698199    -2.505228003
 H       -6.598928703    11.499161706     0.174925273
 C       -6.080833010    11.497285983     2.284017382
 C       -6.804677356    13.507525943     0.972420761
 H       -1.780273085    -0.930193141    -1.431205851
 C       -0.298602523    -0.214981649    -2.845582844
 C       -0.186373701    -2.389842519    -1.604282602
 H       -0.147308465    -1.897587584     1.566511523
 C       -0.232343325    -0.151916926     2.858229851
 C       -2.162485811    -1.083520053     1.570355050
 H       -5.376733452     4.150036971     0.421801066
 H       -5.843083726     5.781212722    -0.051733880
 H       -6.944045925     4.813031951     0.913384691
 H       -5.558959936     7.476510337     3.272081766
 H       -7.050064152     6.817496379     2.579460436
 H       -5.898954856     7.682125812     1.562060670
 H       -2.213209241     4.570968829     2.591843801
 H       -1.689673719     2.907500588     2.759492119
 H       -2.095335920     3.836215495     4.203561857
 H       -4.921818110     1.328858780     3.753445719
 H       -3.772195947     1.984331572     4.935056555
 H       -3.191825016     1.105074368     3.527049087
 H       -0.589625841     8.701495384    16.306900063
 H        1.048908384     8.298087518    15.817526628
 H       -0.287351635     7.942824228    14.732173817
 H        1.599705328    10.920494472    13.224597184
 H        1.064005413     9.260838269    12.900660617
 H        2.298567419     9.573214889    14.112869426
 H       -1.014291468    11.427080414    17.237146447
 H       -2.659961963    11.874855032    17.657028126
 H       -1.743189941    12.895779774    16.558255813
 H       -4.374384230    11.085871496    14.440867845
 H       -3.774237987    12.687759297    14.902187569
 H       -4.557631944    11.657023579    16.093792465
 H       -2.336690134    13.843554886    -1.612735220
 H       -3.044271416    13.565202026    -3.198669344
 H       -2.396806035    12.206560759    -2.289632679
 H       -6.207579187    11.866108694    -2.185639148
 H       -4.711295759    11.009829439    -2.611033052
 H       -5.212487568    12.427948181    -3.519362881
 H       -5.617050569    10.500280444     2.295882461
 H       -7.120041535    11.356535806     2.613480688
 H       -5.589936104    12.098837231     3.062522694
 H       -6.884603761    14.017209376     0.004090611
 H       -6.354117715    14.211881865     1.686170429
 H       -7.835446657    13.340030428     1.316879232
 H       -0.653433408     0.824662012    -2.888036387
 H       -0.767338536    -0.734313357    -3.693573475
 H        0.780514650    -0.204142928    -3.049051199
 H       -0.463206238    -2.982294035    -0.722635886
 H        0.898589756    -2.485300704    -1.744170101
 H       -0.651750490    -2.888116491    -2.467208890
 H        0.852202040    -0.024795554     2.968401806
 H       -0.563781376    -0.727914819     3.734317672
 H       -0.695369278     0.841694288     2.951269580
 H       -2.525243393    -1.687659525     0.729286277
 H       -2.719932828    -0.135437902     1.569087718
 H       -2.466558222    -1.616810394     2.482918712

