187   

Si        0.000000000     0.000000000     0.000000000
 C        1.866443839     0.000000000     0.000000000
 C       -0.650799850     1.721398303     0.000000000
 C        0.158707149     2.798083770     0.376431113
 C       -0.343973745     4.099100085     0.373085457
 C       -1.667816069     4.350276982     0.004974756
 C       -2.479866946     3.270214858    -0.366308193
 C       -1.979440713     1.971577450    -0.369051736
 C       -2.240078186     5.691383254    -0.014676148
 C       -1.579061867     6.815348883     0.310508366
 C       -2.166853242     8.150524837     0.285534863
 C       -1.374153577     9.246758426     0.647024668
 C       -1.896451992    10.538723942     0.636778730
 C       -3.213969146    10.768208780     0.226355067
 C       -4.009744846     9.672740458    -0.134001945
 C       -3.496742483     8.378370103    -0.084009311
Si       -3.966022046    12.447093688     0.188574057
 C       -4.756854070    12.740975689    -1.436636924
 C       -4.335269670    12.191651388    -2.584825745
 C       -4.958573451    12.418640237    -3.889549948
 C       -4.428546292    11.788065154    -5.024991104
 C       -4.987428801    11.974999854    -6.280002259
 C       -6.079725717    12.850884261    -6.452641335
 C       -6.611768322    13.486476217    -5.311534827
 C       -6.069035417    13.250755926    -4.056129545
 N       -6.664793739    13.058933298    -7.711269229
 C       -5.922005992    12.679729829    -8.920516539
 C       -7.462507911    14.285040229    -7.882034261
 C       -4.720454787    13.590164208    -9.227459643
 C       -4.141492047    13.336173957   -10.631020196
 N       -3.646286273    11.965972624   -10.888989155
 C       -2.938413362    11.387729849    -9.803945488
 C       -1.803446466    12.074604280    -9.327789198
 C       -1.072479792    11.558672539    -8.270896687
 C       -1.419102312    10.331599842    -7.684639520
 C       -2.530089265     9.644293835    -8.177181716
 C       -3.284245936    10.157483261    -9.227421417
 C       -4.632895024    11.101131092   -11.556219146
 C       -0.612849532     9.830952988    -6.569448954
 C       -0.853924165     8.675162255    -5.938296087
Si        0.112657139     7.996615592    -4.543456479
 C        0.619480748     6.249983612    -4.775717023
 C        0.566867540     5.631104225    -6.029153429
 C        0.959026917     4.301760670    -6.173537544
 C        1.410290143     3.562694096    -5.072695733
 C        1.459700763     4.183956579    -3.820863873
 C        1.067472092     5.512524156    -3.672173710
 C        1.810054951     2.173851179    -5.273914054
 C        2.258152508     1.360427436    -4.302600732
 C        2.658755699    -0.028784406    -4.500145312
 C        2.613415017    -0.659157374    -5.745928290
 C        3.006823812    -1.990120005    -5.886307324
 C        3.445148592    -2.723283686    -4.779396097
 C        3.496256402    -2.092213337    -3.529101913
 C        3.116824304    -0.760224014    -3.396139375
Si        3.968590096    -4.479854968    -4.942058966
 C        3.499417203    -5.185710276    -6.603506569
 C        5.856058182    -4.604678375    -4.733475756
 C        3.135322324    -5.470025627    -3.545247347
 C        1.640088690     9.066737218    -4.176446064
 C       -1.085621525     8.126747903    -3.072838414
 C       -5.266911381    12.607664786     1.564278963
 C       -2.631190384    13.778872541     0.453829089
 C       -0.670438711    -0.920858241    -1.528203265
 C       -0.620081525    -0.918236251     1.546944475
 H        1.201464436     2.662070302     0.675140770
 H        0.307854070     4.920996257     0.662459110
 H       -3.513104447     3.445772375    -0.659886240
 H       -2.657771862     1.168470418    -0.671309486
 H       -3.289793461     5.733143184    -0.321774174
 H       -0.530798804     6.778653841     0.618118227
 H       -0.339732762     9.091061266     0.946185208
 H       -1.237111980    11.352108595     0.951174406
 H       -5.047190110     9.792223089    -0.465734868
 H       -4.144373706     7.542429809    -0.342770128
 H       -5.612980544    13.430279261    -1.412450503
 H       -3.477515293    11.504453256    -2.632401031
 H       -3.562828701    11.129173340    -4.924980068
 H       -4.554867576    11.452065776    -7.130815918
 H       -7.462521708    14.153646800    -5.395987936
 H       -6.514378851    13.741434417    -3.189797626
 H       -7.761583567    14.410316292    -8.935068919
 H       -6.929167843    15.196231311    -7.564086870
 H       -8.393918326    14.193048939    -7.292988479
 H       -4.954227887    11.586432748   -12.494351152
 H       -5.527120736    10.873711921   -10.956735081
 H       -4.147138502    10.150317775   -11.841970054
 H       -1.507753051    13.011566512    -9.792954947
 H       -0.209018466    12.110316625    -7.898800074
 H       -2.821791597     8.689876417    -7.735767528
 H       -4.145930983     9.599286184    -9.580097274
 H        0.219611206    10.494261197    -6.303586461
 H       -1.703898315     8.034658691    -6.229472882
 H        0.223693148     6.161020688    -6.922400352
 H        0.912496543     3.835521272    -7.155478554
 H        1.795661471     3.628406888    -2.946801154
 H        1.115060540     5.941152578    -2.666295959
 H        1.720517334     1.815939238    -6.303512376
 H        2.346942377     1.720830922    -3.272551455
 H        2.268634980    -0.113354183    -6.622247069
 H        2.951989787    -2.428266008    -6.886480002
 H        3.833559365    -2.614095774    -2.629183063
 H        3.176921818    -0.282739017    -2.419006951
 H       -5.585324669    11.621415679    -8.809639411
 H       -6.637565238    12.682947860    -9.774424562
 H       -5.014997410    14.652606120    -9.142867418
 H       -3.936696114    13.443048727    -8.455688002
 H       -4.891925783    13.601527521   -11.406445047
 H       -3.275259055    14.022181999   -10.795266331
 H        2.263888206    -1.021501896    -0.137831714
 H        2.273293407     0.389379301     0.949268028
 H        2.258274244     0.632961320    -0.817158594
 H        3.781070436    -6.251270974    -6.677335459
 H        3.999327911    -4.652054341    -7.430789357
 H        2.408818463    -5.118911740    -6.769151039
 H        6.109675870    -5.690624918    -4.905868120
 C        6.620078371    -3.765213502    -5.773867502
 C        6.351704346    -4.218027070    -3.328478962
 H        3.504736210    -5.015260353    -2.580283965
 C        1.601152692    -5.344478632    -3.567235235
 C        3.516658038    -6.960934301    -3.539538704
 H        1.269287079    10.132773623    -4.146240057
 C        2.294961068     8.758644352    -2.817794627
 C        2.707930828     8.961171049    -5.279937684
 H       -0.530791581     7.781338221    -2.153911572
 C       -1.539335137     9.579220932    -2.851729903
 C       -2.319042977     7.224480448    -3.250704455
 H       -5.661507652    13.662731619     1.491326481
 C       -6.455065663    11.645840392     1.385146778
 C       -4.677292331    12.414045444     2.972640635
 H       -2.106470193    13.508915325     1.415031268
 C       -1.588357896    13.794663138    -0.679220888
 C       -3.208974898    15.196794544     0.612570325
 H       -1.757256676    -1.127205592    -1.303828412
 C       -0.609314999    -0.090189662    -2.820700325
 C        0.026403264    -2.270370559    -1.779713368
 H       -0.190016942    -1.959047005     1.478571051
 C       -0.120472700    -0.280507561     2.856503725
 C       -2.153120940    -1.040055793     1.615094461
 H        6.386991389    -4.037640474    -6.811260226
 H        7.703212473    -3.911293953    -5.654093688
 H        6.441712726    -2.685564496    -5.665612925
 H        5.910885762    -4.825181021    -2.527875336
 H        6.172725421    -3.160216857    -3.089518056
 H        7.439453805    -4.366119491    -3.260953749
 H        1.251149839    -4.303470252    -3.506632935
 H        1.167808068    -5.866442990    -2.702251092
 H        1.145909221    -5.795042668    -4.458950899
 H        4.597161833    -7.133389633    -3.452341335
 H        3.163662227    -7.496960818    -4.430450531
 H        3.055291482    -7.463240127    -2.676836942
 H        1.612105284     8.886495209    -1.967503585
 H        3.135357352     9.445340928    -2.642560500
 H        2.714558973     7.744457486    -2.765601120
 H        2.331941877     9.215057342    -6.280422375
 H        3.157132765     7.959566444    -5.343499180
 H        3.534246182     9.655955481    -5.074930739
 H       -0.718304660    10.257831461    -2.588220679
 H       -2.247343343     9.620861071    -2.008665724
 H       -2.065750322    10.004854316    -3.717510900
 H       -2.065055936     6.164274269    -3.389418096
 H       -2.963228551     7.530761313    -4.085124772
 H       -2.944422056     7.270367626    -2.346393174
 H       -6.944154764    11.731847713     0.405274972
 H       -7.229227183    11.860786020     2.135485655
 H       -6.175183048    10.592548480     1.528427125
 H       -3.879731156    13.128389294     3.214077370
 H       -4.278351608    11.402407819     3.134401882
 H       -5.459685737    12.559125444     3.731545477
 H       -1.088159498    12.828918421    -0.832552303
 H       -0.795626379    14.520853480    -0.452414326
 H       -2.017609458    14.097628919    -1.646168949
 H       -3.896704501    15.294703305     1.462100190
 H       -3.733637924    15.547771842    -0.286922790
 H       -2.396440910    15.915359586     0.793120263
 H       -1.097501606     0.890622026    -2.741935453
 H       -1.115984598    -0.622740720    -3.637742885
 H        0.419802087     0.083696619    -3.167147414
 H        0.014910173    -2.942639591    -0.913949667
 H        1.071906520    -2.152066670    -2.103572491
 H       -0.483211096    -2.805501332    -2.594504860
 H        0.973336879    -0.234819230     2.930643564
 H       -0.461164181    -0.873079423     3.717784828
 H       -0.508595621     0.736348926     3.011272179
 H       -2.586997576    -1.575597753     0.761185201
 H       -2.655843535    -0.065550602     1.692484582
 H       -2.445571245    -1.607171236     2.510788364

