187   

Si        0.000000000     0.000000000     0.000000000
 C        1.865128147     0.000000000     0.000000000
 C       -0.685627422     1.708154061     0.000000000
 C        0.113729367     2.810275339     0.319059786
 C       -0.420266777     4.098923031     0.314755329
 C       -1.763845947     4.314451272    -0.002137334
 C       -2.564498142     3.208431386    -0.317669538
 C       -2.034333669     1.921492405    -0.315977367
 C       -2.367375499     5.642635126    -0.019971833
 C       -1.717569774     6.785363823     0.259378764
 C       -2.327346146     8.111093354     0.239721408
 C       -3.673316742     8.314559441    -0.078993766
 C       -4.217321624     9.597777999    -0.086370179
 C       -3.421803891    10.708172242     0.217425949
 C       -2.073444936    10.508525279     0.536894058
 C       -1.535446810     9.223810762     0.551220807
Si       -4.139491326    12.402058896     0.207790568
 C       -2.805972592    13.645463600     0.091597709
 C       -2.659493119    14.715710520     0.883543507
 C       -1.573633872    15.688968074     0.755123829
 C       -1.524679171    16.772143432     1.645084633
 C       -0.518569321    17.720288112     1.566059091
 C        0.514342047    17.588680262     0.612039165
 C        0.466836746    16.501474323    -0.280449739
 C       -0.575148454    15.585026514    -0.216689034
 N        1.526264358    18.562906768     0.548833150
 C        1.980132890    19.133562074     1.829521181
 C        2.628592874    18.324928012    -0.396763844
 C        2.475208471    18.077161715     2.839080792
 C        3.505082002    18.662716000     3.822637276
 N        4.916075320    18.365650913     3.482254432
 C        5.285664702    18.788489989     2.175643418
 C        5.243462498    20.170847035     1.905456440
 C        5.591752124    20.645458699     0.651826158
 C        6.025023797    19.770128728    -0.356574156
 C        6.088536267    18.404135927    -0.074955823
 C        5.731688930    17.912193337     1.176404755
 C        5.297884675    16.986918765     3.836799200
 C        6.381265159    20.324202298    -1.664628938
 C        6.806264408    19.587486023    -2.699610163
Si        7.252631136    20.273468570    -4.335481289
 C        7.905344722    21.987837555    -4.214410560
 C        8.631330482    22.380535593    -3.082244585
 C        9.130746130    23.676009127    -2.978900371
 C        8.929954967    24.606101812    -4.007453515
 C        8.213240048    24.208474914    -5.139429099
 C        7.707814009    22.913096516    -5.244384934
 C        9.472575701    25.951863977    -3.853139955
 C        9.347045133    26.935567907    -4.759902884
 C        9.889222602    28.281612254    -4.606644624
 C       10.606111950    28.681919768    -3.476131491
 C       11.106691517    29.979738719    -3.371658217
 C       10.906176471    30.904530810    -4.401277308
 C       10.188392538    30.504950822    -5.536845003
 C        9.685296357    29.210814132    -5.635731318
Si       11.560124490    32.621226462    -4.279323918
 C       12.777168677    32.794127596    -2.876368728
 C       12.394270396    33.060272161    -5.933047797
 C       10.117329304    33.828696991    -3.989201095
 C        8.587595705    19.161527564    -5.108581536
 C        5.704364804    20.233908514    -5.440605357
 C       -5.276524938    12.592208820    -1.306679519
 C       -5.175806559    12.649710035     1.783158655
 C       -0.651951428    -0.907146168    -1.541820866
 C       -0.614538793    -0.923274301     1.547074169
 H        1.171475091     2.704165295     0.574968008
 H        0.223764830     4.940452068     0.563333875
 H       -3.613733390     3.354353674    -0.567382844
 H       -2.707504699     1.098158387    -0.571021256
 H       -3.428566757     5.657749139    -0.285897639
 H       -0.656805442     6.772507599     0.525724191
 H       -4.310494605     7.466995246    -0.323935284
 H       -5.276391903     9.694315964    -0.340897808
 H       -1.407327976    11.341304642     0.785231767
 H       -0.486237035     9.086572463     0.805520172
 H       -2.098288060    13.447195595    -0.730684984
 H       -3.350847377    14.946638706     1.704568883
 H       -2.298636663    16.879924268     2.405435010
 H       -0.528944915    18.568778534     2.243952929
 H        1.238305265    16.365864725    -1.031798482
 H       -0.596830844    14.760784046    -0.931528024
 H        3.322373336    19.186842273    -0.387933570
 H        2.223644999    18.253131531    -1.421718650
 H        3.217110560    17.420738124    -0.172570724
 H        5.151660228    16.849982848     4.922901890
 H        6.374157141    16.841232272     3.638126949
 H        4.728711722    16.206054122     3.309009292
 H        4.945777616    20.862155676     2.691200854
 H        5.543052695    21.716825611     0.452159173
 H        6.426660574    17.704551051    -0.840557890
 H        5.787647944    16.843329701     1.360123499
 H        6.273170434    21.416893975    -1.716459731
 H        6.898195662    18.493066270    -2.623380303
 H        8.824864133    21.694498878    -2.250695013
 H        9.686531482    23.965476119    -2.088830516
 H        8.044073079    24.910902515    -5.953449048
 H        7.156079985    22.661173875    -6.154145672
 H       10.011632213    26.123470157    -2.916773318
 H        8.808393469    26.763929299    -5.696454879
 H       10.779841519    27.979793549    -2.662724844
 H       11.658644158    30.234661614    -2.462668110
 H       10.001824677    31.184325548    -6.373447554
 H        9.129322440    28.919545778    -6.524823966
 H        2.785120698    19.873587598     1.611297465
 H        1.142350074    19.722897958     2.265845444
 H        1.613782960    17.654885689     3.388755306
 H        2.912589071    17.216838392     2.296405375
 H        3.400813181    19.768605776     3.893555736
 H        3.314964137    18.279025305     4.849924486
 H        2.262659940    -1.029776859    -0.042928231
 H        2.275368614     0.477224965     0.907156864
 H        2.260737507     0.545296310    -0.876200500
 H       13.197086015    33.815159050    -2.836917579
 H       13.622569497    32.092483911    -2.996727495
 H       12.306259525    32.590491225    -1.898732997
 H       11.586166108    32.981298804    -6.717368797
 C       12.954369630    34.493119877    -5.976774675
 C       13.513175079    32.072247300    -6.309227657
 H       10.591743753    34.844276564    -3.859552856
 C        9.132686844    33.910490369    -5.169271228
 C        9.326266533    33.504186654    -2.708656974
 H        8.135972299    18.129912101    -5.175462092
 C        8.990216931    19.600082686    -6.527209796
 C        9.850868609    19.074759571    -4.233449886
 H        6.033202160    20.605996988    -6.453614830
 C        5.123504956    18.819909193    -5.619809527
 C        4.594666985    21.166626556    -4.923235089
 H       -6.096528167    11.828074064    -1.177861221
 C       -5.930461893    13.982064561    -1.397357122
 C       -4.550466168    12.290984282    -2.629903474
 H       -5.502486644    13.729940572     1.771471263
 C       -6.439484633    11.772236321     1.829988835
 C       -4.359511337    12.407967587     3.066226087
 H       -1.776660176    -0.913496774    -1.445003451
 C       -0.296363242    -0.176693799    -2.849437316
 C       -0.180113937    -2.368784575    -1.639720846
 H       -0.119327353    -1.936572210     1.514482186
 C       -0.193652417    -0.228193527     2.855007815
 C       -2.138481272    -1.137901307     1.570899146
 H       12.195187857    35.262782665    -5.786606768
 H       13.363426741    34.705545705    -6.975345000
 H       13.777801200    34.653001926    -5.268096854
 H       13.173232166    31.027569409    -6.352628198
 H       14.370178838    32.112734551    -5.623865217
 H       13.904965010    32.308979658    -7.308773720
 H        9.604678197    34.217847258    -6.111008679
 H        8.355414540    34.659460645    -4.957927737
 H        8.603238130    32.964321844    -5.349378277
 H        9.943438371    33.509768712    -1.801007828
 H        8.815041699    32.531938977    -2.757334052
 H        8.540545793    34.256777990    -2.550133970
 H        8.154469499    19.597631878    -7.238464029
 H        9.741795126    18.908714036    -6.935486567
 H        9.448930286    20.599149675    -6.552865252
 H        9.653895190    18.710546660    -3.216049965
 H       10.376686576    20.036683198    -4.145687284
 H       10.570056280    18.372286109    -4.678303603
 H        5.834243179    18.108675148    -6.059326074
 H        4.262542899    18.852382940    -6.303394911
 H        4.752313340    18.387599425    -4.680032421
 H        4.915532446    22.212588383    -4.820085659
 H        4.187198492    20.849062204    -3.952264255
 H        3.748984694    21.173078915    -5.625367367
 H       -6.541947780    14.233731294    -0.521379380
 H       -6.603775488    14.025575465    -2.265212179
 H       -5.198588769    14.791123246    -1.535408669
 H       -4.090735268    11.292988386    -2.657050569
 H       -3.766943621    13.024515325    -2.864780930
 H       -5.263020302    12.322811031    -3.466296359
 H       -7.126732951    11.952384672     0.993674885
 H       -7.010166372    11.984833640     2.745734039
 H       -6.213241436    10.696972657     1.855121096
 H       -3.454947094    13.027537286     3.135601626
 H       -4.047695144    11.359662679     3.180532237
 H       -4.966588272    12.646627070     3.950624980
 H       -0.652988206     0.862998947    -2.876454002
 H       -0.765084088    -0.684102535    -3.704579853
 H        0.782576355    -0.161324541    -3.052928023
 H       -0.462730173    -2.976206230    -0.770247877
 H        0.905936045    -2.460397218    -1.773151385
 H       -0.638433388    -2.852901510    -2.514378440
 H        0.892645544    -0.107857546     2.955659233
 H       -0.517739965    -0.824851376     3.719767134
 H       -0.651360206     0.764095500     2.977426197
 H       -2.512369018    -1.705842279     0.709682148
 H       -2.701329904    -0.195207711     1.624078218
 H       -2.422461196    -1.713901038     2.463730110

