187   

Si        0.000000000     0.000000000     0.000000000
 C        1.865198048     0.000000000     0.000000000
 C       -0.668311711     1.715694079     0.000000000
 C        0.080491102     2.769590551     0.534854037
 C       -0.423934940     4.069614475     0.535763035
 C       -1.688560266     4.345742267     0.008998648
 C       -2.440034280     3.288169766    -0.519941311
 C       -1.939366991     1.988884656    -0.521715992
 C       -2.256677471     5.689628047    -0.011309718
 C       -1.642878059     6.787113625     0.462764331
 C       -2.211113809     8.130958754     0.442394787
 C       -1.458903151     9.188173794     0.972340250
 C       -1.959461525    10.487230158     0.974838454
 C       -3.228398873    10.759563086     0.447607042
 C       -3.980318996     9.706844930    -0.083564353
 C       -3.474116123     8.407361645    -0.087808960
Si       -3.889309354    12.476612076     0.451231330
 C       -5.682454159    12.456963818     0.098764684
 C       -6.308997680    13.208017430    -0.816304480
 C       -7.750055717    13.163223499    -1.069259222
 C       -8.290660933    14.000423773    -2.056462734
 C       -9.646959314    13.997266483    -2.335290582
 C      -10.512531962    13.105822575    -1.664179784
 C       -9.970741812    12.262912749    -0.676166489
 C       -8.615368121    12.313836943    -0.375175092
 N      -11.887079459    13.120323125    -1.963656139
 C      -12.253231747    13.343803186    -3.374054726
 C      -12.726211353    12.103756038    -1.308709610
 C      -11.601686152    12.342802414    -4.350285962
 C      -12.438061817    12.161374535    -5.629806797
 N      -13.312037832    10.965806346    -5.628478025
 C      -14.224841445    10.928113307    -4.538754725
 C      -15.195936905    11.947081676    -4.471587380
 C      -16.113737184    11.966020880    -3.434512749
 C      -16.117491997    10.960317859    -2.455189428
 C      -15.168702810     9.939359994    -2.541340893
 C      -14.235751260     9.912080499    -3.572937867
 C      -12.560150034     9.721799856    -5.872068325
 C      -17.109642521    11.027528529    -1.379412868
 C      -17.205439801    10.125357521    -0.394616029
Si      -18.419233898    10.154873280     0.972586621
 C      -19.239170548     8.515350769     1.111113970
 C      -19.237715257     7.630674000     0.025865014
 C      -19.858492979     6.388318528     0.129442068
 C      -20.503752962     6.005113217     1.312383682
 C      -20.508756926     6.894055419     2.391429639
 C      -19.884599499     8.136781749     2.293223931
 C      -21.139431920     4.693033200     1.371200499
 C      -21.785748418     4.202129146     2.442252519
 C      -22.420871115     2.889624398     2.499131351
 C      -22.415128572     2.002181343     1.419986680
 C      -23.034899270     0.756429849     1.517502879
 C      -23.670606098     0.368717158     2.701051449
 C      -23.677520665     1.257026657     3.785211373
 C      -23.062282271     2.501546744     3.683167620
Si      -24.493195401    -1.271733699     2.846268708
 C      -24.031454865    -2.398904980     1.433471927
 C      -23.979361513    -2.051988171     4.504838722
 C      -26.382074364    -1.036328023     2.847337013
 C      -17.483881704    10.540650157     2.584309715
 C      -19.739708807    11.494035605     0.695553323
 C       -3.615139919    13.242109157     2.171735497
 C       -2.954500329    13.515144917    -0.839377979
 C       -0.647673061    -0.921019053    -1.535430107
 C       -0.631872436    -0.905900885     1.549869259
 H        1.076321851     2.615970748     0.959882797
 H        0.180519639     4.872441696     0.954066166
 H       -3.427902438     3.480958407    -0.934025437
 H       -2.572800452     1.204938132    -0.945712087
 H       -3.254821864     5.757556705    -0.453814322
 H       -0.644743908     6.719177454     0.905286039
 H       -0.472234736     8.994077935     1.388216829
 H       -1.328748501    11.271224865     1.403089417
 H       -4.975548876     9.863219425    -0.512385125
 H       -4.076990572     7.605078060    -0.509018422
 H       -6.244354753    11.755138660     0.737369110
 H       -5.780677746    13.922930287    -1.460874413
 H       -7.636263941    14.677700624    -2.605882899
 H      -10.042279684    14.686176291    -3.076066524
 H      -10.601912691    11.565911117    -0.133981090
 H       -8.224124198    11.661317221     0.407155373
 H      -13.786618414    12.261799020    -1.581701782
 H      -12.658488290    12.223001803    -0.212854709
 H      -12.461984832    11.069108677    -1.580438283
 H      -12.060129439     9.800544177    -6.853796961
 H      -13.263992110     8.873777835    -5.938828752
 H      -11.797336123     9.493188569    -5.111618876
 H      -15.226114006    12.710893032    -5.245899423
 H      -16.852326207    12.766777276    -3.388659838
 H      -15.154823130     9.142681373    -1.795654530
 H      -13.509225767     9.105448126    -3.607984892
 H      -17.777401628    11.894873247    -1.459870028
 H      -16.513782841     9.267344460    -0.339815124
 H      -18.755013032     7.879067499    -0.924978706
 H      -19.843441570     5.710806616    -0.722360967
 H      -21.003546543     6.620745554     3.321498353
 H      -19.919956841     8.789054834     3.170191719
 H      -21.057187433     4.103975528     0.452893066
 H      -21.868620378     4.790757176     3.360581474
 H      -21.924527235     2.278205550     0.488326792
 H      -22.997594235     0.105719337     0.639430171
 H      -24.158391734     1.007937350     4.735424389
 H      -23.079437668     3.178159205     4.535490818
 H      -13.364424779    13.300775731    -3.453848604
 H      -11.974437412    14.386901803    -3.645565318
 H      -10.579581616    12.681066905    -4.603095173
 H      -11.459650481    11.366912747    -3.846778672
 H      -13.081829362    13.051239469    -5.810561922
 H      -11.769832030    12.091457199    -6.517467481
 H        2.263398291    -1.028554701    -0.060739099
 H        2.277260038     0.462735412     0.913587008
 H        2.258653221     0.560858164    -0.867532271
 H      -24.494224856    -3.395018193     1.551591731
 H      -22.937129429    -2.545622376     1.385024991
 H      -24.360738633    -1.992874969     0.461020696
 H      -24.332348025    -1.338218839     5.305054646
 C      -24.635620104    -3.418579818     4.769922350
 C      -22.452519020    -2.193648293     4.641066321
 H      -26.818342798    -2.076385324     2.881551391
 C      -26.907582997    -0.259229803     4.067534443
 C      -26.890708621    -0.347170624     1.567789874
 H      -18.267527898    10.587652651     3.394802971
 C      -16.477839136     9.438187191     2.959904285
 C      -16.754486309    11.894968555     2.546342429
 H      -19.175328394    12.455924525     0.522703164
 C      -20.606961698    11.214719812    -0.545423151
 C      -20.665054441    11.698143212     1.908444657
 H       -2.498185310    13.256800036     2.330743507
 C       -4.131258810    14.687823230     2.276461803
 C       -4.243532376    12.401005128     3.297113355
 H       -3.478016828    14.514704036    -0.867526305
 C       -1.478488479    13.763863498    -0.481104330
 C       -3.022292515    12.896531690    -2.247830628
 H       -1.773035797    -0.919881477    -1.446733612
 C       -0.276687552    -0.211259163    -2.850149052
 C       -0.185508721    -2.387355447    -1.611053212
 H       -0.165977364    -1.932769701     1.518337853
 C       -0.190912328    -0.221620459     2.856724873
 C       -2.161724298    -1.074971455     1.572313239
 H      -25.732691937    -3.383090947     4.761596704
 H      -24.347898929    -3.785921949     5.765862304
 H      -24.320458191    -4.190983248     4.055936262
 H      -21.915902669    -1.241824762     4.518889307
 H      -22.022426863    -2.909543322     3.928176042
 H      -22.196018072    -2.563855828     5.643925300
 H      -26.651888783    -0.727346503     5.026466256
 H      -28.005811704    -0.208505870     4.035105765
 H      -26.554738981     0.781392807     4.094394527
 H      -26.630036773    -0.886756816     0.648235922
 H      -26.524218546     0.684272145     1.463587711
 H      -27.988189517    -0.283028456     1.585284357
 H      -16.934959690     8.442257455     3.046671797
 H      -16.030268827     9.655250659     3.940450067
 H      -15.642673721     9.360075083     2.250571464
 H      -17.425420832    12.745673048     2.370189864
 H      -15.960786018    11.933625966     1.786435985
 H      -16.265085953    12.085875735     3.512327353
 H      -20.027507442    11.095527333    -1.470940366
 H      -21.298142517    12.051486179    -0.719247633
 H      -21.233026223    10.317369197    -0.433600122
 H      -20.131403226    12.002143064     2.817919658
 H      -21.259969380    10.805555483     2.148572730
 H      -21.389414063    12.498462739     1.697254915
 H       -3.662943771    15.370769067     1.556111504
 H       -3.911855453    15.094790727     3.273843590
 H       -5.220553992    14.763521605     2.146440627
 H       -3.889317031    11.360591788     3.312735394
 H       -5.341039429    12.378052946     3.252748952
 H       -3.983391094    12.827745996     4.276238021
 H       -1.343303193    14.282576354     0.476424756
 H       -1.010261101    14.403000389    -1.243905503
 H       -0.883997663    12.840071518    -0.451939296
 H       -4.047223923    12.723823126    -2.603729033
 H       -2.486588086    11.938712122    -2.317822212
 H       -2.549931152    13.567595234    -2.978679994
 H       -0.619313772     0.832482314    -2.892753146
 H       -0.746384906    -0.724055841    -3.701484500
 H        0.803656650    -0.211763853    -3.047362055
 H       -0.480412277    -2.981784645    -0.736665605
 H        0.900942311    -2.488643797    -1.733612698
 H       -0.639684822    -2.879106482    -2.483594591
 H        0.898529424    -0.136437040     2.958452858
 H       -0.535081692    -0.806020054     3.722168436
 H       -0.617533804     0.784714545     2.976698675
 H       -2.549377799    -1.645672684     0.718969655
 H       -2.697199193    -0.115405740     1.606416823
 H       -2.465776235    -1.627262516     2.473369540

