187   

Si        0.000000000     0.000000000     0.000000000
 C        1.865020963     0.000000000     0.000000000
 C       -0.679003756     1.711328072     0.000000000
 C        0.110208949     2.799517720     0.386149324
 C       -0.413420641     4.092389201     0.382778942
 C       -1.736843402     4.326208163     0.000167507
 C       -2.527875084     3.234193436    -0.381382792
 C       -2.007938373     1.942847141    -0.379915644
 C       -2.327799542     5.660186610    -0.019065400
 C       -1.682736172     6.789242726     0.320703248
 C       -2.276521011     8.122090512     0.300451497
 C       -1.488405097     9.216893038     0.680470462
 C       -2.011991877    10.506938867     0.676764961
 C       -3.341754154    10.731023940     0.298498293
 C       -4.130627999     9.640598860    -0.081943806
 C       -3.600362736     8.350847459    -0.084211523
Si       -4.038448038    12.432473277     0.291741866
 C       -5.865412721    12.355249493     0.296487578
 C       -6.680064555    13.015278129    -0.536546884
 C       -8.141639518    12.923979340    -0.497250459
 C       -8.888299798    13.666076747    -1.425700035
 C      -10.272200400    13.614773512    -1.430755075
 C      -10.955490746    12.835978317    -0.474786530
 C      -10.213552276    12.088904517     0.451546993
 C       -8.823190962    12.121504750     0.420595945
 N      -12.372123179    12.828680177    -0.537482528
 C      -13.015999409    14.139876594    -0.321080542
 C      -13.042364849    11.718159008     0.155459367
 C      -13.307450636    14.527341958     1.139135643
 C      -12.054547492    14.773401965     2.000292367
 N      -11.362184252    16.051272854     1.768286465
 C      -12.128029611    17.224024780     1.783204933
 C      -13.212211314    17.337008223     2.682560234
 C      -13.980833154    18.488334264     2.712107717
 C      -13.677216983    19.585773636     1.892912300
 C      -12.586386114    19.483363613     1.025628406
 C      -11.815819778    18.329543225     0.967957884
 C      -10.245693517    15.978484598     0.817608182
 C      -14.523667297    20.777049330     1.965317473
 C      -14.332078000    21.883078548     1.233258488
Si      -15.389129909    23.371679307     1.323195188
 C      -17.125129414    22.957430654     1.770237987
 C      -17.678727271    21.743056444     1.347783337
 C      -18.991910689    21.410643231     1.675995949
 C      -19.786014948    22.287773487     2.420269217
 C      -19.233072070    23.506586843     2.834148171
 C      -17.919550544    23.839768282     2.511977917
 C      -21.164887614    21.981574076     2.786588223
 C      -21.811537776    20.851494171     2.453651134
 C      -23.190213472    20.543859353     2.819161012
 C      -23.984917912    21.416429531     3.567027434
 C      -25.298895251    21.081671593     3.894120788
 C      -25.844824293    19.860890276     3.485345850
 C      -25.049487125    18.983436840     2.735691889
 C      -23.740553461    19.323193550     2.405413109
Si      -27.577097741    19.403837783     3.908648326
 C      -28.286377884    20.533893278     5.212235723
 C      -28.660862706    19.514641438     2.347715234
 C      -27.585657248    17.602470938     4.524230742
 C      -14.651232491    24.572996756     2.601033997
 C      -15.382953377    24.215034348    -0.382033388
 C       -3.476243473    13.354641742     1.858291163
 C       -3.393609676    13.366271413    -1.233888274
 C       -0.650746201    -0.910612620    -1.540226771
 C       -0.622148700    -0.917318473     1.547206714
 H        1.152230246     2.679069624     0.695082286
 H        0.222953119     4.922707816     0.683473801
 H       -3.561479846     3.394251708    -0.682534131
 H       -2.672972769     1.130828689    -0.686990568
 H       -3.373161167     5.692120703    -0.340499487
 H       -0.637605721     6.758358962     0.642041314
 H       -0.454606430     9.059873264     0.982046812
 H       -1.350141138    11.322382199     0.981305569
 H       -5.174499886     9.758266648    -0.390515707
 H       -4.232571874     7.518493725    -0.388116205
 H       -6.269656676    11.698607139     1.085520685
 H       -6.310085557    13.681307638    -1.326899886
 H       -8.373374110    14.280876221    -2.164583850
 H      -10.839943743    14.161678314    -2.181157442
 H      -10.713618914    11.473990330     1.193866635
 H       -8.264535579    11.520313923     1.139762748
 H      -14.115137680    11.731048350    -0.105597829
 H      -12.949900682    11.740492172     1.252425739
 H      -12.629668776    10.761961069    -0.213828561
 H       -9.696127542    15.027598617     0.949187167
 H       -9.529319271    16.792023780     1.035204770
 H      -10.556195697    16.045355999    -0.237751291
 H      -13.446140210    16.519400803     3.357683762
 H      -14.827233218    18.546484684     3.398054369
 H      -12.328791955    20.322128941     0.377319508
 H      -10.981774585    18.289988349     0.275407202
 H      -15.350093755    20.676805258     2.683634561
 H      -13.490303040    21.962654089     0.529196654
 H      -17.106629976    21.018728740     0.757835839
 H      -19.396834984    20.457146310     1.342251387
 H      -19.834535500    24.203965199     3.413876371
 H      -17.542957657    24.804546355     2.862325060
 H      -21.665642785    22.757264266     3.373276723
 H      -21.310477101    20.076374171     1.866360677
 H      -23.582303010    22.370885439     3.901341357
 H      -25.871732381    21.805673818     4.480227686
 H      -25.422419575    18.015510168     2.389181915
 H      -23.139275532    18.629606502     1.820774233
 H      -12.399575385    14.933089085    -0.800040031
 H      -13.977956361    14.113259887    -0.888275370
 H      -13.941794844    15.439403202     1.136181959
 H      -13.927301032    13.748419682     1.621254072
 H      -12.338756960    14.744837022     3.080194181
 H      -11.327067275    13.941117370     1.861100944
 H        2.262936532    -1.029706063    -0.042213250
 H        2.276040248     0.478047111     0.906316087
 H        2.259915767     0.544777250    -0.876941013
 H      -29.310702384    20.227551015     5.490132481
 H      -28.335636040    21.580382681     4.863663813
 H      -27.673045473    20.512570946     6.131383796
 H      -29.711109453    19.283248313     2.689380045
 C      -28.660263428    20.924099358     1.727918585
 C      -28.279896139    18.496958315     1.257702021
 H      -27.188889880    16.981737167     3.668868807
 C      -26.655648493    17.388077555     5.732105045
 C      -28.990391605    17.079617505     4.873407937
 H      -15.299947789    25.495560689     2.575507431
 C      -14.687670961    23.999655943     4.028991987
 C      -13.209229524    24.997941870     2.270644714
 H      -14.304787137    24.461570225    -0.604400166
 C      -15.899330203    23.284112988    -1.493919162
 C      -16.189418273    25.524967211    -0.412105582
 H       -2.351121628    13.415279267     1.796596174
 C       -4.027586926    14.788766400     1.941297140
 C       -3.841033137    12.600065034     3.148977764
 H       -3.932841961    14.357616076    -1.241467807
 C       -1.881492832    13.648585210    -1.184984115
 C       -3.716542189    12.633170992    -2.548744003
 H       -1.775236400    -0.922467657    -1.441484078
 C       -0.300437104    -0.179813211    -2.849013613
 C       -0.172587332    -2.370353934    -1.637357953
 H       -0.141684122    -1.937607145     1.512394656
 C       -0.189570135    -0.230387980     2.855519033
 C       -2.149115545    -1.109414667     1.572263817
 H      -29.002263124    21.705189928     2.419031395
 H      -29.342103022    20.956951609     0.866044039
 H      -27.672237172    21.223858496     1.349665745
 H      -28.336559260    17.454413881     1.595251275
 H      -27.273585748    18.666044553     0.849193721
 H      -28.972368048    18.581310004     0.407391608
 H      -25.616461065    17.690627536     5.538702059
 H      -26.620520916    16.321592558     5.996442093
 H      -26.992293514    17.918776369     6.632553533
 H      -29.695383177    17.133045225     4.033777755
 H      -29.443660535    17.604654649     5.724672707
 H      -28.935245941    16.019504338     5.160919684
 H      -15.697761267    23.727451541     4.365118546
 H      -14.314735859    24.744988256     4.745365618
 H      -14.050408151    23.111084887     4.148482921
 H      -13.111583308    25.487655324     1.293558989
 H      -12.500280158    24.158335922     2.298045601
 H      -12.852265245    25.724662802     3.014672831
 H      -15.336500294    22.343970643    -1.572558856
 H      -15.811566765    23.778979145    -2.471416065
 H      -16.961539828    23.025888366    -1.375073489
 H      -15.818454421    26.281301644     0.291286632
 H      -17.259190429    25.374026464    -0.208037207
 H      -16.130397291    25.980226457    -1.411337665
 H       -3.735092007    15.417862872     1.090792984
 H       -3.640213275    15.289161709     2.840573947
 H       -5.123862932    14.822725904     2.019376645
 H       -3.446202737    11.574654069     3.180875119
 H       -4.924536209    12.544469886     3.321452153
 H       -3.416779312    13.118616192     4.020794821
 H       -1.578869627    14.257100845    -0.323323055
 H       -1.575967318    14.211638466    -2.079118185
 H       -1.274584925    12.732135172    -1.180962779
 H       -4.786509247    12.426557454    -2.687019123
 H       -3.183786855    11.675664438    -2.643911962
 H       -3.406146212    13.244069728    -3.408082488
 H       -0.659965876     0.858859093    -2.876018920
 H       -0.769409664    -0.689231466    -3.702851137
 H        0.778043753    -0.161302385    -3.054925988
 H       -0.451123995    -2.978145990    -0.766832815
 H        0.913623386    -2.457439135    -1.772572063
 H       -0.630250619    -2.857441616    -2.510739584
 H        0.898507236    -0.126676024     2.955131006
 H       -0.521640880    -0.823503250     3.719726910
 H       -0.632443640     0.768299722     2.980009362
 H       -2.530817965    -1.678445276     0.715162531
 H       -2.698559404    -0.158375334     1.617539478
 H       -2.441838072    -1.674420220     2.469288555

