187   

Si        0.000000000     0.000000000     0.000000000
 C        1.865437532     0.000000000     0.000000000
 C       -0.681463091     1.710029242     0.000000000
 C        0.141466513     2.818557635     0.221696126
 C       -0.389611830     4.108437061     0.218707489
 C       -1.753811375     4.318714650     0.002362062
 C       -2.577900798     3.206521648    -0.216739852
 C       -2.050144723     1.918519538    -0.219132262
 C       -2.354113328     5.648592463    -0.009632401
 C       -1.679813119     6.795261978     0.181401103
 C       -2.282759709     8.124093286     0.168889449
 C       -1.461773976     9.239085880     0.382575786
 C       -1.993359094    10.526663140     0.379346718
 C       -3.363700671    10.725477528     0.179165154
 C       -4.187560543     9.613681110    -0.031694256
 C       -3.649626307     8.328109232    -0.041871394
Si       -4.100855372    12.411138680     0.168548882
 C       -5.828334560    12.293143596     0.751979096
 C       -6.899831570    12.814342226     0.141935492
 C       -8.269092192    12.694186789     0.647924786
 C       -9.307366126    13.287139100    -0.086958417
 C      -10.620889736    13.204694302     0.344768386
 C      -10.929089473    12.479550896     1.508557265
 C       -9.902300478    11.876146019     2.242268299
 C       -8.582662055    11.997218437     1.816015206
 N      -12.310962054    12.444742029     1.884581024
 C      -13.071575411    11.490812395     1.044599762
 C      -12.556049076    12.260399437     3.325628346
 C      -12.724180231    10.007422902     1.288671891
 C      -13.017814829     9.128788381     0.057451435
 N      -11.832823701     8.776769698    -0.752379961
 C      -11.205373395     9.848755149    -1.429975184
 C      -12.005658130    10.708848384    -2.210117215
 C      -11.431457516    11.770372314    -2.889648119
 C      -10.044282446    11.977204024    -2.869727719
 C       -9.249898386    11.097457575    -2.130011500
 C       -9.813618173    10.039020289    -1.427167933
 C      -10.938447277     7.833487189    -0.059087771
 C       -9.494633897    13.115945738    -3.606610767
 C       -8.191477913    13.422206292    -3.666798686
Si       -7.534678371    14.853697500    -4.597200119
 C       -8.581617627    15.253090436    -6.053542634
 C       -9.204350914    14.215764799    -6.760594237
 C      -10.001841471    14.494852860    -7.866801920
 C      -10.187087988    15.813718520    -8.302625193
 C       -9.557768437    16.845488838    -7.600821442
 C       -8.761607846    16.569217274    -6.489512300
 C      -11.032280328    16.055032213    -9.467231651
 C      -11.295693839    17.266608197    -9.985293937
 C      -12.141408502    17.505329749   -11.150245967
 C      -12.769485117    16.472009615   -11.850173958
 C      -13.569933567    16.745296725   -12.959234557
 C      -13.753298164    18.060475104   -13.397463902
 C      -13.123383732    19.098783323   -12.697782056
 C      -12.330324414    18.823354681   -11.587372376
Si      -14.806567783    18.437302119   -14.859352872
 C      -15.198091190    16.898311392   -15.838126990
 C      -16.438751011    19.225063735   -14.277050430
 C      -13.885038264    19.693777073   -15.953091804
 C       -7.462566811    16.340254511    -3.408113820
 C       -5.768822701    14.455457164    -5.173849652
 C       -3.133973270    13.617530606     1.265599480
 C       -4.061751172    13.011541079    -1.639614440
 C       -0.658613514    -0.899014799    -1.543205423
 C       -0.604596331    -0.929347937     1.547605712
 H        1.215841593     2.717078949     0.398282483
 H        0.272761759     4.955021388     0.389905128
 H       -3.643178832     3.348245950    -0.388541202
 H       -2.740992879     1.089898599    -0.398926958
 H       -3.432772631     5.661189539    -0.191676756
 H       -0.601151713     6.783512185     0.363017370
 H       -0.395207936     9.101505255     0.549769555
 H       -1.304544870    11.359328633     0.544548613
 H       -5.266969192     9.712300124    -0.192487018
 H       -4.307987309     7.478412155    -0.212886682
 H       -5.928099493    11.741527844     1.702027079
 H       -6.835929761    13.373089276    -0.802339206
 H       -9.080639455    13.833438623    -1.006379723
 H      -11.421002583    13.687593059    -0.214540614
 H      -10.124027768    11.315732527     3.145027085
 H       -7.792333463    11.529378861     2.403394820
 H      -13.625006242    12.453008279     3.522707504
 H      -11.977541533    13.013600964     3.889204486
 H      -12.305475513    11.262841701     3.714809523
 H      -11.531575623     6.987572425     0.327990108
 H      -10.377340126     8.277332798     0.778969949
 H      -10.219884942     7.414906353    -0.786984887
 H      -13.076921624    10.539605708    -2.277524547
 H      -12.069428587    12.442693832    -3.464758759
 H       -8.167488819    11.237332975    -2.091407293
 H       -9.162504074     9.389232716    -0.850279678
 H      -10.266273978    13.705498383    -4.123162207
 H       -7.433655023    12.820665856    -3.141953920
 H       -9.091853029    13.165630436    -6.468831043
 H      -10.483053000    13.676522233    -8.399348552
 H       -9.684139547    17.878696546    -7.918630734
 H       -8.295431770    17.418083657    -5.982102322
 H      -11.459157517    15.153269394    -9.916422667
 H      -10.868979900    18.168576439    -9.537053461
 H      -12.639059894    15.438993730   -11.532775404
 H      -14.035905399    15.895265208   -13.465265157
 H      -13.230069129    20.145917785   -12.994833149
 H      -11.850568934    19.643091613   -11.055909749
 H      -14.153070461    11.670349602     1.225752996
 H      -12.879990515    11.759462457    -0.021377686
 H      -11.653666929     9.919896914     1.563066576
 H      -13.283879535     9.630688638     2.162314742
 H      -13.492549456     8.173189207     0.379071477
 H      -13.764269985     9.618563383    -0.606684087
 H        2.263293900    -1.030131951    -0.029538865
 H        2.274443514     0.488657809     0.901691708
 H        2.261840467     0.533671492    -0.882897663
 H      -15.796832159    17.138663617   -16.734803366
 H      -15.772107960    16.168103089   -15.241288151
 H      -14.272616573    16.400969603   -16.181034626
 H      -17.051356748    19.381703398   -15.211540105
 C      -17.234205265    18.304983387   -13.332977256
 C      -16.254660745    20.591757696   -13.593393259
 H      -13.733247020    20.609874479   -15.311190852
 C      -12.497515901    19.188983841   -16.388719444
 C      -14.678572087    20.119054182   -17.201243880
 H       -7.048942804    17.197897813    -4.012502831
 C       -8.857200240    16.741646484    -2.895092166
 C       -6.534105020    16.121373944    -2.200450277
 H       -5.175884695    14.239927682    -4.236155940
 C       -5.715529081    13.208551147    -6.074059877
 C       -5.091637603    15.628265227    -5.902996741
 H       -2.085760525    13.649692211     0.848016430
 C       -3.703684302    15.047328261     1.229654381
 C       -3.047831662    13.147159749     2.728541429
 H       -4.730479135    13.919300115    -1.687200726
 C       -2.661984173    13.427397802    -2.121871052
 C       -4.620679582    11.943663993    -2.597948531
 H       -1.783256121    -0.896894735    -1.444838100
 C       -0.299250581    -0.167799388    -2.849348389
 C       -0.196793699    -2.363542756    -1.644738210
 H       -0.096378011    -1.936264169     1.513607071
 C       -0.190285025    -0.228836558     2.854772273
 C       -2.125229868    -1.165008241     1.576287826
 H      -17.478438934    17.330830724   -13.775675678
 H      -18.194414928    18.772699604   -13.071873454
 H      -16.714877697    18.117465983   -12.382084443
 H      -15.763677523    21.336601537   -14.232354777
 H      -15.687737502    20.525672803   -12.654001933
 H      -17.235216539    21.014077065   -13.329170624
 H      -11.849752411    18.916218871   -15.543188371
 H      -11.965744912    19.976957673   -16.940905059
 H      -12.547397169    18.321441212   -17.059965199
 H      -15.657723357    20.556015879   -16.966253432
 H      -14.841237194    19.293735189   -17.907032149
 H      -14.123008679    20.890437675   -17.754317118
 H       -9.567441004    16.978976591    -3.698811336
 H       -8.786006359    17.645315524    -2.273568251
 H       -9.320469353    15.969097818    -2.263679526
 H       -5.497429956    15.897487621    -2.482399723
 H       -6.886099347    15.323736965    -1.530250811
 H       -6.492902557    17.034420040    -1.588629294
 H       -6.147242548    12.311689547    -5.608396447
 H       -4.672186738    12.960852561    -6.315977800
 H       -6.224369757    13.356974770    -7.037585052
 H       -5.004811459    16.532941943    -5.287865821
 H       -5.603162479    15.906445131    -6.835647067
 H       -4.066320495    15.352286570    -6.189161751
 H       -3.718472329    15.484917917     0.223016226
 H       -3.084458438    15.714707319     1.845942450
 H       -4.722929641    15.112287346     1.637225389
 H       -2.614329772    12.143561061     2.840432016
 H       -4.023080974    13.145610866     3.235163907
 H       -2.403049723    13.825504211     3.305486472
 H       -2.226528247    14.249894355    -1.540556239
 H       -2.711834683    13.780048121    -3.162669354
 H       -1.942369471    12.596905542    -2.116697538
 H       -5.652656281    11.645317984    -2.367345669
 H       -4.011161095    11.028293201    -2.621077141
 H       -4.627196526    12.323129227    -3.630544704
 H       -0.648460077     0.874482465    -2.873263920
 H       -0.773280161    -0.669525883    -3.704994853
 H        0.779403383    -0.160011707    -3.054541275
 H       -0.480292365    -2.970456219    -0.775194535
 H        0.888221249    -2.461886052    -1.781925277
 H       -0.661132758    -2.843501770    -2.518559006
 H        0.894283979    -0.091162036     2.952124306
 H       -0.502104028    -0.831307299     3.719990697
 H       -0.662890820     0.756110937     2.979384837
 H       -2.497248464    -1.722714468     0.707638911
 H       -2.699877331    -0.231113642     1.650204144
 H       -2.395655167    -1.760485997     2.460597168

