187   

Si        0.000000000     0.000000000     0.000000000
 C        1.865472991     0.000000000     0.000000000
 C       -0.675986839     1.710986170     0.000000000
 C        0.163407586     2.822924365     0.115111369
 C       -0.366470323     4.112908149     0.113290836
 C       -1.744831330     4.318526257     0.017560217
 C       -2.585476228     3.202612034    -0.092471021
 C       -2.058729485     1.914740107    -0.106201096
 C       -2.342000146     5.648496276     0.011931281
 C       -1.647537763     6.796029981     0.096305279
 C       -2.247433256     8.124977483     0.090445681
 C       -1.414136965     9.246338474     0.184304257
 C       -1.948810065    10.533330090     0.182043586
 C       -3.331822960    10.720964515     0.108993447
 C       -4.168223316     9.600150595     0.018377123
 C       -3.629325084     8.316547270     0.001298845
Si       -4.128707579    12.374800683     0.099969672
 C       -5.652149738    12.331005484     1.110503910
 C       -6.838980411    12.782875111     0.687351762
 C       -8.075597237    12.763077873     1.468395048
 C       -9.230790493    13.280652086     0.862878116
 C      -10.442736775    13.301908354     1.527075186
 C      -10.507913282    12.922378651     2.882664032
 C       -9.348512374    12.436480542     3.506306037
 C       -8.156461460    12.333287378     2.792604565
 N      -11.776757279    12.964204086     3.510185986
 C      -12.472551726    14.265074172     3.448693630
 C      -11.874789175    12.316739517     4.828033704
 C      -11.932639762    15.366177972     4.382578206
 C      -10.830572800    16.246337861     3.760577319
 N      -11.242634967    17.196512134     2.703461317
 C      -11.138127685    16.668636529     1.385262887
 C       -9.834410361    16.453983346     0.897222271
 C       -9.648153364    15.942663041    -0.376399587
 C      -10.739710027    15.712415574    -1.229084442
 C      -12.026667225    15.968949910    -0.751784151
 C      -12.232148433    16.443096593     0.540817657
 C      -12.485819120    17.923951343     2.998801185
 C      -10.485491953    15.169954671    -2.566825731
 C      -11.450925450    14.912910455    -3.458620396
Si      -11.193900246    14.237754990    -5.137697356
 C       -9.716135289    13.146324101    -5.243193511
 C       -9.456191931    12.265834989    -4.184357767
 C       -8.349315212    11.420178570    -4.219323447
 C       -7.503108856    11.396628554    -5.332633426
 C       -7.775584017    12.265209777    -6.397274669
 C       -8.864155973    13.134671558    -6.352134765
 C       -6.332752412    10.527797288    -5.413775128
 C       -5.961510273     9.652057622    -4.463573869
 C       -4.792750235     8.781340192    -4.539610439
 C       -3.929658815     8.779164921    -5.637851648
 C       -2.822561344     7.931546161    -5.672735510
 C       -2.538314887     7.084890422    -4.596375258
 C       -3.394873541     7.095716167    -3.487188613
 C       -4.506238555     7.934100857    -3.460403697
Si       -1.076942275     5.964239541    -4.639331764
 C        0.033612022     6.348548272    -6.089839466
 C       -0.122192162     6.167785336    -3.007735037
 C       -1.639494337     4.150577138    -4.775095883
 C      -12.731227251    13.216700151    -5.601119596
 C      -11.032901405    15.689810896    -6.355740485
 C       -2.961960737    13.670310172     0.868735072
 C       -4.475693547    12.905496418    -1.689561780
 C       -0.664926696    -0.853064498    -1.567353995
 C       -0.600921215    -0.955181194     1.531105118
 H        1.248592815     2.723501485     0.203349689
 H        0.308981533     4.963054621     0.193079668
 H       -3.662329125     3.341625700    -0.169762052
 H       -2.761279454     1.082103569    -0.202994884
 H       -3.433172985     5.660216846    -0.064576228
 H       -0.556511594     6.785168482     0.177410661
 H       -0.336194063     9.115709039     0.252226897
 H       -1.252630865    11.373475245     0.242623861
 H       -5.258575384     9.691526947    -0.041942536
 H       -4.296909442     7.460476191    -0.075346619
 H       -5.522296461    11.900743976     2.114279871
 H       -6.980333043    13.219492599    -0.313621548
 H       -9.193386074    13.592753015    -0.183589366
 H      -11.340483336    13.635146610     1.007904959
 H       -9.366069281    12.131331018     4.547266736
 H       -7.274882121    11.927367863     3.288580480
 H      -12.930624173    12.306841389     5.148251555
 H      -11.275967046    12.796408048     5.617920010
 H      -11.555354647    11.262762118     4.733345454
 H      -12.378606597    18.425443211     3.976325469
 H      -13.392021196    17.299689039     3.022237676
 H      -12.625209502    18.714709213     2.239669552
 H       -8.979957424    16.673208721     1.535987905
 H       -8.632841270    15.764297091    -0.735780739
 H      -12.891404314    15.795813943    -1.392445856
 H      -13.244636253    16.626135441     0.886872895
 H       -9.422737202    14.979481930    -2.768971515
 H      -12.507321431    15.125545033    -3.226435404
 H      -10.093298024    12.225646376    -3.293297376
 H       -8.157045863    10.762293969    -3.372695469
 H       -7.129297090    12.265877754    -7.272857645
 H       -9.019082241    13.794736588    -7.209419557
 H       -5.745038064    10.637056831    -6.329316294
 H       -6.560830539     9.531920434    -3.554577411
 H       -4.120061993     9.436701306    -6.483552609
 H       -2.191717539     7.967239246    -6.564843532
 H       -3.213626551     6.465458700    -2.610029394
 H       -5.153711581     7.934647029    -2.585238065
 H      -12.461460989    14.624258256     2.393501347
 H      -13.543612223    14.067091961     3.686584565
 H      -12.773018148    15.999237910     4.722135966
 H      -11.528498796    14.908465232     5.306715820
 H      -10.367176110    16.866580531     4.564811996
 H      -10.019298098    15.591288083     3.364246077
 H        2.263073610    -1.030278949    -0.028008652
 H        2.273205424     0.488599816     0.902406018
 H        2.264047049     0.532108035    -0.882710244
 H        0.929217521     5.702412892    -6.086247095
 H        0.381258961     7.396636066    -6.055760680
 H       -0.482862733     6.194758241    -7.052936412
 H       -0.840732653     5.844577626    -2.195676074
 C        1.126823491     5.274450143    -2.911351114
 C        0.274148859     7.628776370    -2.731623500
 H       -0.690196714     3.549720809    -4.883163408
 C       -2.387044902     3.634294362    -3.534655537
 C       -2.512033241     3.894049381    -6.017809663
 H      -13.605293546    13.927871770    -5.547110292
 C      -12.667246925    12.645141650    -7.027924257
 C      -12.989803669    12.066141011    -4.612030795
 H      -10.898199965    15.226541354    -7.375802836
 C      -12.282795224    16.586516560    -6.403905940
 C       -9.802491663    16.566224352    -6.059610227
 H       -2.024157208    13.655115309     0.242075090
 C       -3.538408086    15.096833167     0.828436107
 C       -2.573885962    13.330457753     2.318906495
 H       -4.976706489    13.914713085    -1.627946575
 C       -3.198173808    13.054240040    -2.535574986
 C       -5.423842544    11.935636099    -2.408402142
 H       -1.787317721    -0.880958386    -1.448385788
 C       -0.348776233    -0.060267900    -2.849069073
 C       -0.171174224    -2.300385631    -1.735093526
 H       -0.062867093    -1.946982798     1.496469593
 C       -0.220599745    -0.251645765     2.847146304
 C       -2.113425032    -1.238808150     1.544650872
 H        0.895929378     4.203125128    -2.988609483
 H        1.612215990     5.411646284    -1.934466105
 H        1.885486403     5.511334889    -3.667743881
 H       -0.591640711     8.307413321    -2.689453605
 H        0.977845741     8.032530332    -3.470273486
 H        0.770564668     7.707865327    -1.754514829
 H       -1.799292915     3.708894683    -2.607456217
 H       -2.626569209     2.568103056    -3.654740197
 H       -3.343407466     4.147305027    -3.366466532
 H       -2.018936971     4.160833994    -6.960981792
 H       -3.471792525     4.428894969    -5.981847409
 H       -2.757845640     2.825134726    -6.090765878
 H      -12.574247292    13.416281146    -7.803265577
 H      -13.590778231    12.092561807    -7.253870828
 H      -11.842626462    11.931037321    -7.166643272
 H      -13.095240655    12.399410339    -3.570462853
 H      -12.204308750    11.296861851    -4.637596631
 H      -13.927772184    11.553156364    -4.867942045
 H      -13.195906355    16.047352842    -6.686501560
 H      -12.148809164    17.376450178    -7.157238913
 H      -12.476880922    17.100931076    -5.452418621
 H       -8.856350759    16.007689888    -6.057319417
 H       -9.875877784    17.092623845    -5.096770852
 H       -9.698978825    17.344169871    -6.829136261
 H       -3.744193540    15.453331357    -0.189245152
 H       -2.818813498    15.805848402     1.261831527
 H       -4.463782422    15.201763965     1.412784563
 H       -2.128807310    12.332270907     2.431258846
 H       -3.423643635    13.393540571     3.012737551
 H       -1.823213966    14.044857036     2.685497103
 H       -2.497437955    13.801602946    -2.144631492
 H       -3.460204179    13.379001677    -3.553588804
 H       -2.650680655    12.107457306    -2.653320119
 H       -6.380160179    11.777538238    -1.893550182
 H       -4.961026410    10.949638307    -2.572685528
 H       -5.675721230    12.323156276    -3.408345657
 H       -0.730748604     0.971342186    -2.826519039
 H       -0.821025362    -0.542851846    -3.716538017
 H        0.725434605    -0.010618860    -3.070104772
 H       -0.422317048    -2.947333455    -0.884669945
 H        0.912887113    -2.366969629    -1.896871510
 H       -0.641458902    -2.757667261    -2.617874054
 H        0.858719026    -0.085047094     2.957858085
 H       -0.525717401    -0.867427280     3.705428560
 H       -0.720713316     0.719532816     2.972197616
 H       -2.462728443    -1.790128796     0.662584430
 H       -2.717724103    -0.325609806     1.634876903
 H       -2.369791556    -1.860813142     2.414951661

