187   

Si        0.000000000     0.000000000     0.000000000
 C        1.865464704     0.000000000     0.000000000
 C       -0.674656187     1.712784953     0.000000000
 C        0.143041264     2.809357415     0.290830184
 C       -0.377809659     4.103160976     0.288216802
 C       -1.726252550     4.330298487     0.000912839
 C       -2.545060481     3.230077282    -0.286909996
 C       -2.027829648     1.937604088    -0.287068918
 C       -2.313577870     5.666028402    -0.013102911
 C       -1.638942717     6.799778323     0.242710533
 C       -2.222840535     8.136918170     0.229603608
 C       -3.571079923     8.367964542    -0.057302719
 C       -4.087152833     9.663606101    -0.058660632
 C       -3.258778952    10.756435524     0.212992739
 C       -1.906282643    10.529597789     0.500277691
 C       -1.398222735     9.233654372     0.514131258
Si       -3.910183188    12.476786365     0.218494315
 C       -2.545031328    13.618652386    -0.205734618
 C       -2.200694549    14.720579043     0.472065705
 C       -1.095993982    15.605137982     0.090728937
 C       -0.833285606    16.732857882     0.884602264
 C        0.199620120    17.600697140     0.567358933
 C        1.015858588    17.336666747    -0.544885314
 C        0.764681413    16.214335340    -1.340253479
 C       -0.292435175    15.365041977    -1.025748341
 N        2.059962243    18.287842806    -0.798510703
 C        3.255453635    18.006944513     0.029704272
 C        2.376710284    18.475893241    -2.225401798
 C        4.061215078    16.764342289    -0.400659148
 C        4.920768009    16.203270835     0.748796514
 N        4.333278686    15.050701471     1.465675762
 C        3.146367161    15.354912119     2.187130392
 C        3.242319285    16.301523824     3.225762140
 C        2.119960058    16.639518491     3.964824796
 C        0.878808283    16.039459923     3.707451038
 C        0.799307923    15.076603420     2.698060111
 C        1.920336228    14.714733769     1.959711141
 C        4.278632103    13.835402380     0.634338509
 C       -0.278393563    16.430209257     4.516095077
 C       -1.505955457    15.920718316     4.354234081
Si       -2.995674805    16.355357018     5.319766524
 C       -3.766884684    14.785283257     5.885976619
 C       -2.946507071    13.728683989     6.303610408
 C       -3.508224630    12.530626406     6.736392822
 C       -4.898835480    12.357555011     6.758486744
 C       -5.713278860    13.414617185     6.343531806
 C       -5.154547200    14.618455838     5.915671129
 C       -5.440160426    11.083991656     7.220267090
 C       -6.749880638    10.793052354     7.296030193
 C       -7.291902804     9.519488098     7.757793400
 C       -6.479817171     8.461106257     8.173181798
 C       -7.040308609     7.260008158     8.607434591
 C       -8.428079966     7.089799334     8.629714119
 C       -9.244904551     8.149615423     8.212685861
 C       -8.682588161     9.348886817     7.784527899
Si       -9.184041232     5.511075142     9.199918644
 C       -7.911384467     4.155580230     9.349229381
 C       -9.999444779     5.773660994    10.899707913
 C      -10.531826363     5.013263311     7.951260244
 C       -2.561770593    17.417669569     6.834961683
 C       -4.176964838    17.353627593     4.211979743
 C       -5.325305649    12.692320163    -1.025960313
 C       -4.552302759    12.823557877     1.976036109
 C       -0.657141857    -0.901767112    -1.542324535
 C       -0.615214282    -0.922436008     1.547111819
 H        1.205350401     2.695118179     0.523506203
 H        0.280590248     4.939639015     0.515521875
 H       -3.598404973     3.384727060    -0.512969385
 H       -2.714587650     1.119000745    -0.519803739
 H       -3.380341438     5.694859728    -0.253147637
 H       -0.572229926     6.769655336     0.483870633
 H       -4.232933674     7.533025285    -0.279122881
 H       -5.150609062     9.782667063    -0.282504841
 H       -1.214673326    11.349231800     0.724313435
 H       -0.347056988     9.073583131     0.745911310
 H       -2.003525996    13.321998359    -1.119954352
 H       -2.723251116    15.046463404     1.382114671
 H       -1.451676252    16.939029056     1.760832665
 H        0.393495540    18.483283772     1.175641825
 H        1.383721369    16.003620774    -2.206853611
 H       -0.482051458    14.499382244    -1.660665411
 H        3.044818086    19.349273342    -2.320584308
 H        1.445758808    18.711468720    -2.770533661
 H        2.857660563    17.615611337    -2.712838508
 H        5.293541625    13.612506036     0.262750862
 H        3.599341885    13.902345687    -0.229953099
 H        3.968726362    12.981176361     1.262734809
 H        4.202814714    16.759734891     3.448658314
 H        2.208478608    17.379105382     4.760216027
 H       -0.151790128    14.581467400     2.483980133
 H        1.818101569    13.964709373     1.180327962
 H       -0.043039971    17.190700344     5.271017680
 H       -1.704906492    15.155004305     3.582983139
 H       -1.853666105    13.806285001     6.299908183
 H       -2.857331904    11.719060912     7.057533856
 H       -6.796067796    13.306455492     6.353390646
 H       -5.842057874    15.410999150     5.608459781
 H       -4.687561630    10.345367095     7.512321232
 H       -7.502578265    11.530487421     7.002748451
 H       -5.396266884     8.566199478     8.160573310
 H       -6.353890934     6.467959097     8.919767641
 H      -10.335855941     8.073284128     8.207428247
 H       -9.333326738    10.160610718     7.465333582
 H        3.898360766    18.913294771     0.002059607
 H        2.913100764    17.892502939     1.085858830
 H        3.366427035    15.981920828    -0.764689089
 H        4.704443239    17.014837730    -1.262227115
 H        5.910577496    15.875823699     0.356439250
 H        5.142299064    16.998473330     1.495180300
 H        2.263509488    -1.029554465    -0.042941198
 H        2.275065058     0.477051065     0.907548601
 H        2.261034511     0.545314013    -0.876132043
 H       -8.379632007     3.200976584     9.648734876
 H       -7.140860191     4.398419760    10.101859028
 H       -7.399357215     3.985185601     8.384556517
 H      -10.382557047     4.759500061    11.212797376
 C       -8.998470468     6.255828553    11.965788717
 C      -11.193265231     6.744680111    10.869788779
 H      -11.281433724     5.857338911     7.953159406
 C       -9.984992534     4.872909358     6.519070611
 C      -11.276124058     3.721405567     8.332847591
 H       -1.999412654    18.312209249     6.438785373
 C       -3.802177407    17.930505629     7.588216372
 C       -1.648885380    16.681015345     7.832087705
 H       -5.065683657    17.601825497     4.861852076
 C       -3.560792946    18.677315849     3.723549317
 C       -4.687097478    16.567708622     2.991795625
 H       -6.133700526    11.971797874    -0.707025331
 C       -5.923197645    14.110884872    -1.014171105
 C       -4.910355153    12.333087985    -2.463935210
 H       -4.768887108    13.930090608     2.020956356
 C       -5.849510204    12.072571343     2.321610998
 C       -3.494757837    12.491726043     3.042745214
 H       -1.781902560    -0.899806209    -1.445500064
 C       -0.296213669    -0.173256234    -2.849554097
 C       -0.195617882    -2.366697915    -1.640545206
 H       -0.122756029    -1.937063669     1.513034913
 C       -0.190908502    -0.229346715     2.854987660
 C       -2.139646915    -1.133320800     1.573545117
 H       -8.152945736     5.571367899    12.111907363
 H       -9.498260823     6.338979970    12.941542053
 H       -8.586473056     7.251234031    11.745603755
 H      -11.994759364     6.429851134    10.189740052
 H      -10.902679859     7.769439953    10.598759396
 H      -11.648183296     6.810664377    11.868972976
 H       -9.482178183     5.780601122     6.155402410
 H      -10.808924299     4.677083072     5.818277747
 H       -9.280204363     4.038083488     6.408578110
 H      -11.757091263     3.771413849     9.318234161
 H      -10.628680996     2.834580736     8.321180966
 H      -12.079855003     3.523869714     7.608665448
 H       -4.456782711    18.560957888     6.973252390
 H       -3.493598101    18.551879209     8.441718492
 H       -4.414804709    17.119889972     8.007750830
 H       -0.714872152    16.313896329     7.385408539
 H       -2.145239765    15.823825568     8.309879744
 H       -1.355843768    17.358317742     8.646722146
 H       -3.259079043    19.345943967     4.539650747
 H       -4.295720249    19.237176833     3.127477224
 H       -2.686065834    18.530938243     3.073293444
 H       -5.143291271    15.601990223     3.251446929
 H       -3.898651318    16.378708035     2.248625331
 H       -5.464884024    17.143822809     2.470517283
 H       -6.323769544    14.405513705    -0.035421144
 H       -6.763254651    14.171067397    -1.720547456
 H       -5.204067470    14.881446637    -1.326740955
 H       -4.508715665    11.314684002    -2.560678308
 H       -4.165083925    13.024967581    -2.879821879
 H       -5.782238980    12.383057917    -3.131583502
 H       -6.691351350    12.327918280     1.667333339
 H       -6.164840135    12.326176533     3.345748201
 H       -5.729538244    10.980083378     2.308000401
 H       -2.553008397    13.041939401     2.919219929
 H       -3.250700338    11.420863683     3.087915999
 H       -3.877653557    12.752856805     4.042954310
 H       -0.645086072     0.869104239    -2.875745219
 H       -0.769069189    -0.676560354    -3.704834322
 H        0.782729989    -0.165881871    -3.053234680
 H       -0.482662134    -2.972349661    -0.771288035
 H        0.889796788    -2.465865692    -1.773710809
 H       -0.657100253    -2.847386916    -2.515431653
 H        0.895823640    -0.112050344     2.954450447
 H       -0.515744478    -0.825597827     3.719698767
 H       -0.645565409     0.764233496     2.978440481
 H       -2.517015261    -1.697013737     0.711078346
 H       -2.699857785    -0.189361935     1.631732915
 H       -2.422958085    -1.711921575     2.464899505

