187   

Si        0.000000000     0.000000000     0.000000000
 C        1.864979169     0.000000000     0.000000000
 C       -0.676428938     1.710613897     0.000000000
 C        0.095979738     2.772151631     0.482628530
 C       -0.408794305     4.071678337     0.486311874
 C       -1.697370780     4.339158937     0.016194435
 C       -2.472844364     3.273422083    -0.459153500
 C       -1.971905849     1.974012103    -0.463914851
 C       -2.260282251     5.685657914     0.004154993
 C       -1.614182721     6.783229660     0.433525054
 C       -2.166465014     8.133434796     0.426293097
 C       -1.376714195     9.186540396     0.905769242
 C       -1.860403912    10.492916612     0.918909898
 C       -3.143694916    10.777407413     0.439917838
 C       -3.934415952     9.726522837    -0.041692521
 C       -3.451427289     8.419427367    -0.043909411
Si       -3.827647788    12.485746804     0.436061818
 C       -4.833865134    12.755286504    -1.068427065
 C       -4.586716500    12.134030709    -2.229446199
 C       -5.367571478    12.323111255    -3.452374159
 C       -4.996208554    11.605704445    -4.601052970
 C       -5.697945875    11.744697074    -5.785360949
 C       -6.826536211    12.589546634    -5.845601176
 C       -7.197311054    13.311909730    -4.701099389
 C       -6.457597983    13.191037091    -3.528570244
 N       -7.505349768    12.693207464    -7.082630073
 C       -7.945167756    11.402133152    -7.664541876
 C       -8.522647202    13.752339366    -7.185399090
 C       -8.366414242    10.315503389    -6.660122256
 C       -9.547379193    10.746626224    -5.772054278
 N       -9.706188064     9.922355312    -4.565010519
 C      -10.136277467     8.596598516    -4.702226743
 C      -10.729387376     8.134536514    -5.896127203
 C      -11.146822692     6.817282095    -6.006874378
 C      -11.046965389     5.928123205    -4.928565100
 C      -10.488415372     6.396191535    -3.734767977
 C      -10.042839996     7.703845619    -3.613016631
 C       -8.690522828    10.187521409    -3.531329738
 C      -11.503424939     4.549067017    -5.103242740
 C      -11.458204264     3.611290808    -4.147550932
Si      -12.019772206     1.883171435    -4.334930668
 C      -10.737864263     0.696850956    -3.757726936
 C       -9.422131618     1.100370800    -3.511095555
 C       -8.468856556     0.179518761    -3.073618745
 C       -8.809503340    -1.161189844    -2.879453090
 C      -10.128895951    -1.563532454    -3.130337516
 C      -11.082145046    -0.647875596    -3.564157238
 C       -7.857577205    -2.167903442    -2.424298923
 C       -6.562631822    -1.947254160    -2.141234789
 C       -5.639182597    -2.983135663    -1.687165886
 C       -6.035615709    -4.311247063    -1.507380395
 C       -5.127942960    -5.276205938    -1.072319065
 C       -3.797808208    -4.933232065    -0.810972679
 C       -3.397898026    -3.602519197    -0.990413963
 C       -4.307287124    -2.640018171    -1.420674171
Si       -2.592936669    -6.201277436    -0.236214965
 C       -3.304309336    -7.922179581    -0.339627295
 C       -1.036762942    -6.058964084    -1.323355032
 C       -2.104540533    -5.859448787     1.571484499
 C      -13.589858184     1.645332494    -3.284366357
 C      -12.438969772     1.510895280    -6.153865956
 C       -4.940895365    12.713680449     1.960451809
 C       -2.430716063    13.773485355     0.496953277
 C       -0.628268179    -0.940077264    -1.533192323
 C       -0.653115866    -0.910670014     1.538454039
 H        1.110935131     2.626709673     0.863227206
 H        0.214780375     4.880681700     0.863000330
 H       -3.480021863     3.460050867    -0.827437682
 H       -2.623827322     1.180986662    -0.842017141
 H       -3.278259990     5.754640660    -0.389457441
 H       -0.595784922     6.709827016     0.827166681
 H       -0.373398280     8.984760900     1.276100718
 H       -1.201431979    11.271988358     1.311424182
 H       -4.946250679     9.891076128    -0.428318853
 H       -4.086017430     7.619192200    -0.420401554
 H       -5.653010082    13.480797068    -0.964613452
 H       -3.765324574    11.411927839    -2.352404268
 H       -4.135405991    10.935873626    -4.563807831
 H       -5.378746928    11.211071284    -6.677895115
 H       -8.057198510    13.974158075    -4.715183960
 H       -6.751287896    13.775531494    -2.655746605
 H       -8.812837384    13.864214457    -8.245307434
 H       -8.079667770    14.716520738    -6.876745088
 H       -9.432075450    13.573544280    -6.591392504
 H       -8.252066436    11.194286726    -3.655087044
 H       -7.860311063     9.461560065    -3.543364535
 H       -9.175168133    10.164237268    -2.538359192
 H      -10.852639324     8.798501019    -6.745314753
 H      -11.574895411     6.475049907    -6.949700192
 H      -10.400689222     5.725520823    -2.878285304
 H       -9.622992525     8.032149503    -2.667303308
 H      -11.889290326     4.350144008    -6.112186302
 H      -11.073868423     3.843407773    -3.140948551
 H       -9.099155733     2.136732953    -3.651474869
 H       -7.451318585     0.516268631    -2.885263867
 H      -10.413836831    -2.603750764    -2.984592824
 H      -12.095626176    -1.019934765    -3.740022304
 H       -8.280856560    -3.172802649    -2.320046170
 H       -6.128269728    -0.949216629    -2.241433238
 H       -7.064244595    -4.606723777    -1.706165636
 H       -5.499844517    -6.297189663    -0.950538377
 H       -2.368378812    -3.279957713    -0.802986754
 H       -3.978262784    -1.610616437    -1.554820094
 H       -8.769402198    11.587465915    -8.386558316
 H       -7.084756256    11.023397407    -8.268557043
 H       -8.622769393     9.388079156    -7.208010807
 H       -7.505519049    10.035353017    -6.019275728
 H       -9.416430490    11.802114935    -5.435627871
 H      -10.500051587    10.731957068    -6.346988111
 H        2.266198067    -1.028627283    -0.028966539
 H        2.277850283     0.491439543     0.897916134
 H        2.256841717     0.534605379    -0.884419028
 H       -2.562044604    -8.679586394    -0.030338340
 H       -3.611761795    -8.163666623    -1.373202721
 H       -4.188296903    -8.038861895     0.311587880
 H       -0.632049470    -5.019258711    -1.146988606
 C        0.067595750    -7.063001806    -0.949966576
 C       -1.350540752    -6.191131938    -2.824368491
 H       -1.501324838    -6.756495310     1.895320157
 C       -1.230871978    -4.607341377     1.759036440
 C       -3.329782663    -5.747467956     2.497392531
 H      -13.922874369     0.581792986    -3.459806007
 C      -13.321896720     1.815933556    -1.778469595
 C      -14.739029635     2.580122677    -3.700009704
 H      -13.142406141     2.331107139    -6.480206773
 C      -11.194878095     1.554570727    -7.060145466
 C      -13.154241894     0.164657140    -6.364412849
 H       -5.322272828    13.774428198     1.912385074
 C       -6.155879044    11.768519627     1.943955295
 C       -4.186706074    12.535569036     3.289528249
 H       -1.853715248    13.563052410     1.443704042
 C       -1.463506512    13.645090854    -0.693620425
 C       -2.943878109    15.222958868     0.566920524
 H       -1.736116241    -1.090568808    -1.375558801
 C       -0.444793536    -0.149301994    -2.840553443
 C        0.023357463    -2.325247217    -1.698174992
 H       -0.268078216    -1.968575284     1.459259952
 C       -0.120154127    -0.309333341     2.851567690
 C       -2.190062374    -0.959685897     1.608247921
 H        0.393337061    -6.983486793     0.095285508
 H        0.961342366    -6.884204137    -1.565422291
 H       -0.223386251    -8.106342029    -1.129970696
 H       -2.092453402    -5.461050967    -3.178552710
 H       -1.713149652    -7.189862496    -3.101231814
 H       -0.440960474    -6.018477249    -3.417078716
 H       -0.295142232    -4.637170106     1.186849292
 H       -0.939917021    -4.507400734     2.815010611
 H       -1.761283027    -3.678962507     1.499628533
 H       -3.966868259    -6.641184583     2.489111385
 H       -3.967940152    -4.884093226     2.259610285
 H       -3.004633632    -5.613103551     3.539010758
 H      -12.541271839     1.143050822    -1.396439908
 H      -14.231619563     1.585688007    -1.205881876
 H      -13.038626966     2.842213974    -1.507200086
 H      -15.044574207     2.455961554    -4.746804364
 H      -14.502063376     3.643000872    -3.546830980
 H      -15.631450267     2.373437107    -3.092338217
 H      -10.641154712     2.501856417    -7.002817940
 H      -11.488680910     1.431155700    -8.111783061
 H      -10.481993587     0.746088633    -6.842450079
 H      -14.099063574     0.081306956    -5.812673585
 H      -12.528997363    -0.698493323    -6.096914511
 H      -13.408463855     0.037989761    -7.426930344
 H       -6.778845325    11.872984957     1.045362894
 H       -6.811163782    11.982796247     2.800278935
 H       -5.873604761    10.709378423     2.032431999
 H       -3.355159744    13.240418587     3.417327364
 H       -3.787327264    11.519734190     3.422521653
 H       -4.868331242    12.708799736     4.135030891
 H       -1.010149439    12.648416791    -0.785167972
 H       -0.630367088    14.353224122    -0.581460367
 H       -1.939459669    13.879233934    -1.657098596
 H       -3.581631098    15.418930669     1.438222116
 H       -3.500835932    15.523114161    -0.331586250
 H       -2.095066459    15.917748958     0.647050392
 H       -0.936325900     0.833495326    -2.828743563
 H       -0.885337693    -0.704267536    -3.681647645
 H        0.609005556     0.017041987    -3.099407134
 H       -0.040659624    -2.953031054    -0.799449609
 H        1.082642810    -2.264892556    -1.981435016
 H       -0.476987672    -2.881113632    -2.505942659
 H        0.974723624    -0.317507332     2.923281271
 H       -0.487757583    -0.891423869     3.709047922
 H       -0.457463460     0.723788524     3.017229141
 H       -2.655517036    -1.465732646     0.751442060
 H       -2.646477583     0.036829674     1.694619763
 H       -2.509671858    -1.517406753     2.501042718

