187   

Si        0.000000000     0.000000000     0.000000000
 C        1.863564116     0.000000000     0.000000000
 C       -0.687953553     1.706234156     0.000000000
 C        0.122058072     2.835472087     0.151115642
 C       -0.435370607     4.115294529     0.146170775
 C       -1.810784034     4.290465543    -0.016991311
 C       -2.621880229     3.156463178    -0.164842018
 C       -2.070493503     1.880195455    -0.149760133
 C       -2.456297343     5.595971572    -0.031653333
 C       -1.845650045     6.785356037     0.104919982
 C       -2.565030283     8.056327279     0.079271273
 C       -3.952759277     8.103813411    -0.091893589
 C       -4.624781963     9.321023336    -0.114340101
 C       -3.928637389    10.522576211     0.076303925
 C       -2.544003345    10.480135249     0.259889827
 C       -1.869792191     9.258333673     0.252688052
Si       -4.908849445    12.070775898     0.028117415
 C       -3.905702386    13.595622911    -0.046859757
 C       -4.043607594    14.668701865     0.742944471
 C       -3.209981724    15.869839009     0.640513182
 C       -3.438782692    16.939414778     1.518946308
 C       -2.669568809    18.091288962     1.450892206
 C       -1.641520103    18.194075441     0.497601154
 C       -1.367446280    17.108440728    -0.339444209
 C       -2.112559245    15.939991081    -0.221420867
 N       -0.892412162    19.413940812     0.490207682
 C       -1.637559832    20.518598260    -0.162005270
 C        0.486989435    19.282942607    -0.013033020
 C       -1.906737717    20.348404278    -1.672369642
 C       -3.383523789    20.021573914    -1.982387865
 N       -3.614794579    19.394580813    -3.310823094
 C       -3.032099395    18.084084673    -3.345810006
 C       -3.803044967    17.047221308    -2.794252359
 C       -3.308096987    15.752659456    -2.790888756
 C       -2.085069347    15.442859934    -3.406208682
 C       -1.346432168    16.477480019    -3.984877330
 C       -1.808140809    17.789735904    -3.955160303
 C       -3.227188047    20.270003463    -4.430952929
 C       -1.601630908    14.058021129    -3.376938239
 C       -0.447269623    13.678442320    -3.938894404
Si        0.276000008    12.003041526    -3.980679453
 C       -0.841037663    10.549677884    -3.977088570
 C       -2.207172519    10.598118444    -4.264101282
 C       -2.975648625     9.432854005    -4.235232349
 C       -2.401160972     8.200746582    -3.904804200
 C       -1.033087203     8.157859714    -3.615033145
 C       -0.261516915     9.313632810    -3.654483943
 C       -3.220629113     6.991821348    -3.879653251
 C       -2.725073765     5.778529355    -3.581900275
 C       -3.472541774     4.529238423    -3.535365094
 C       -4.840572524     4.442058649    -3.804191875
 C       -5.498499165     3.213523296    -3.742483581
 C       -4.796408183     2.041982427    -3.434785414
 C       -3.423585501     2.127672542    -3.177154950
 C       -2.771671638     3.356045625    -3.226746565
Si       -5.669949167     0.423822869    -3.354808639
 C       -6.947479763     0.281704474    -4.704280828
 C       -4.397153254    -0.987156998    -3.492840896
 C       -6.517756405     0.276537431    -1.655623794
 C        1.361206587    11.923122678    -5.543818436
 C        1.390200322    11.894110778    -2.434392176
 C       -5.986234762    12.057354171    -1.544736991
 C       -6.050584379    12.132075385     1.550678818
 C       -0.677345344    -0.855659092    -1.562686791
 C       -0.621260495    -0.952947509     1.525271236
 H        1.204515823     2.757335487     0.276741445
 H        0.212970580     4.980244642     0.268851567
 H       -3.697154355     3.274255779    -0.299582650
 H       -2.754561256     1.033619912    -0.267450770
 H       -3.542826945     5.551243625    -0.177554899
 H       -0.766033596     6.858505952     0.243787022
 H       -4.520160178     7.184302864    -0.230015179
 H       -5.706009779     9.288835537    -0.280792970
 H       -1.955630047    11.390168112     0.409945094
 H       -0.789945526     9.241396896     0.385959482
 H       -3.123840885    13.562647047    -0.826659395
 H       -4.802347092    14.736326141     1.532185115
 H       -4.239241718    16.873909843     2.254443450
 H       -2.845172642    18.917055004     2.137509928
 H       -0.569783266    17.159339674    -1.075915855
 H       -1.831723030    15.074428404    -0.826376362
 H        1.034816203    20.209334247     0.232443620
 H        0.571783269    19.107049087    -1.096107189
 H        0.988771879    18.454437554     0.517209681
 H       -3.874375054    21.164182189    -4.409606573
 H       -3.422633323    19.745376294    -5.382517659
 H       -2.178431039    20.600203934    -4.422255273
 H       -4.771929626    17.275841766    -2.352540940
 H       -3.908580676    14.959993980    -2.338055020
 H       -0.393075666    16.266754051    -4.469445760
 H       -1.213599000    18.577709194    -4.407444571
 H       -2.279474683    13.358029092    -2.872571166
 H        0.201967129    14.422079786    -4.435119947
 H       -2.707049992    11.535879502    -4.523338533
 H       -4.037106886     9.485391410    -4.470115485
 H       -0.558326322     7.214116128    -3.349101376
 H        0.801864966     9.206955840    -3.417547709
 H       -4.275798956     7.132894926    -4.117690257
 H       -1.661391140     5.665920288    -3.337087961
 H       -5.403519166     5.338084021    -4.056237368
 H       -6.571058036     3.206251515    -3.952226413
 H       -2.819062711     1.249595537    -2.926977062
 H       -1.703948651     3.402537800    -3.011690698
 H       -2.594067109    20.647983551     0.392273480
 H       -1.054468145    21.450117518     0.014391060
 H       -1.607025254    21.263976023    -2.210917795
 H       -1.262412183    19.541937592    -2.075824807
 H       -3.786326479    19.322431479    -1.212543341
 H       -4.003584133    20.941229242    -1.932297384
 H        2.263590416    -1.028732836    -0.040248303
 H        2.270808957     0.479142300     0.907744119
 H        2.261675356     0.543942799    -0.875557642
 H       -7.439381723    -0.706784007    -4.687835267
 H       -6.483876083     0.406111444    -5.700201024
 H       -7.735498935     1.048389473    -4.607030261
 H       -3.641097092    -0.805728942    -2.672400306
 C       -5.000114950    -2.385170549    -3.267196830
 C       -3.646367121    -0.980378252    -4.836801392
 H       -7.068265235    -0.707619619    -1.674745255
 C       -5.528832211     0.249911749    -0.476108338
 C       -7.547518060     1.393892546    -1.407375456
 H        2.062573951    12.804232760    -5.480450642
 C        2.212892332    10.646420912    -5.642794798
 C        0.525637846    12.067125222    -6.828485666
 H        1.961248312    10.926625594    -2.524302226
 C        2.410984618    13.041072407    -2.337266420
 C        0.562829199    11.846708826    -1.138060039
 H       -6.636954203    11.139765555    -1.464965969
 C       -6.905070811    13.286058118    -1.658356859
 C       -5.149085827    11.936580235    -2.828907647
 H       -6.555450259    13.140834544     1.513599642
 C       -7.151862112    11.057768473     1.555842398
 C       -5.262569675    12.036254793     2.869945251
 H       -1.802753845    -0.799461031    -1.475316110
 C       -0.269539310    -0.131851483    -2.858499843
 C       -0.289889533    -2.340094958    -1.674958021
 H       -0.088273045    -1.947174591     1.496404816
 C       -0.250845048    -0.251720727     2.845040422
 C       -2.136158883    -1.227118040     1.522238122
 H       -5.479300034    -2.498874236    -2.286224824
 H       -4.208693208    -3.147374796    -3.312619685
 H       -5.736597115    -2.663887461    -4.032079163
 H       -3.154980890    -0.022263001    -5.058671283
 H       -4.294925714    -1.221169584    -5.689582262
 H       -2.852430923    -1.740659142    -4.829339333
 H       -4.794782779    -0.563804927    -0.539923167
 H       -6.073509299     0.097524768     0.466918625
 H       -4.980348801     1.196678626    -0.363549485
 H       -8.342463634     1.430553917    -2.162865078
 H       -7.089438392     2.392248837    -1.354602204
 H       -8.050897037     1.234793004    -0.443005099
 H        2.889536484    10.505567012    -4.790689764
 H        2.851340207    10.689575211    -6.537297879
 H        1.605896405     9.735281856    -5.746339859
 H       -0.071567853    12.988637796    -6.861805530
 H       -0.160540709    11.222606261    -6.987998814
 H        1.185489528    12.095580383    -7.707170438
 H        3.079525050    13.105808829    -3.204496130
 H        3.059819653    12.892325107    -1.462119001
 H        1.936846097    14.023997246    -2.203678370
 H       -0.156203768    11.013516600    -1.116389335
 H        0.003688418    12.775706081    -0.953064799
 H        1.224884457    11.707393101    -0.272214802
 H       -7.606505323    13.384167786    -0.820407310
 H       -7.520903425    13.212694378    -2.565958470
 H       -6.350276216    14.232155936    -1.739218506
 H       -4.454901445    11.082275999    -2.812094326
 H       -4.563294772    12.840764982    -3.045586267
 H       -5.807508055    11.782596667    -3.695188496
 H       -7.798616803    11.089769386     0.670257252
 H       -7.813068641    11.203600680     2.422617393
 H       -6.752909400    10.037804743     1.647686946
 H       -4.484118779    12.804569030     2.974506113
 H       -4.777587552    11.058513936     3.005503637
 H       -5.940257828    12.164246939     3.725514440
 H       -0.521000487     0.938722319    -2.860252538
 H       -0.795162215    -0.573973449    -3.717889619
 H        0.803168778    -0.216523240    -3.075182443
 H       -0.630905898    -2.943851212    -0.824165374
 H        0.791798112    -2.495078884    -1.780029850
 H       -0.751044273    -2.781929450    -2.570298641
 H        0.828087960    -0.091177746     2.967277472
 H       -0.568171901    -0.865258159     3.700396077
 H       -0.746621576     0.722575613     2.964504109
 H       -2.480126630    -1.772901729     0.634537980
 H       -2.734133099    -0.309080961     1.611430548
 H       -2.404690212    -1.850257777     2.387673551

