187   

Si        0.000000000     0.000000000     0.000000000
 C        1.864544896     0.000000000     0.000000000
 C       -0.688136245     1.706620236     0.000000000
 C        0.095993679     2.818527280    -0.319572654
 C       -0.454356078     4.101293378    -0.310985278
 C       -1.800762021     4.295601460     0.003543980
 C       -2.587210023     3.178729123     0.320564531
 C       -2.039325852     1.900499317     0.322495170
 C       -2.429571650     5.610380209     0.028397259
 C       -1.820762971     6.778558375    -0.239056507
 C       -2.500732679     8.070304629    -0.199219331
 C       -1.789498619     9.239864423    -0.492211879
 C       -2.416696714    10.485928858    -0.460907164
 C       -3.772696264    10.587943650    -0.138607075
 C       -4.487903988     9.416745185     0.148792630
 C       -3.860160765     8.175867294     0.113988724
Si       -4.699847757    12.179092153    -0.067690277
 C       -5.846007129    12.095294066     1.361931433
 C       -5.548864595    11.370855652     2.449605796
 C       -6.389545786    11.237976874     3.637773490
 C       -5.922349413    10.435782178     4.689603490
 C       -6.665071216    10.264465905     5.844704870
 C       -7.958778173    10.820738825     5.950628490
 C       -8.434913388    11.611107766     4.888013829
 C       -7.645352738    11.834161683     3.765195032
 N       -8.704386833    10.638550765     7.132980545
 C       -8.443655440     9.397166697     7.892243917
 C      -10.135614849    10.979508562     7.066890858
 C       -8.514216932     8.100540469     7.065942716
 C       -9.899772355     7.429543854     7.073552979
 N       -9.983238817     6.216866848     7.911477265
 C       -9.057401309     5.190043062     7.638892123
 C       -8.516509375     5.041578936     6.343487525
 C       -7.605802225     4.032941266     6.071819919
 C       -7.241035761     3.099662918     7.052164897
 C       -7.803153702     3.227421116     8.325349815
 C       -8.698964255     4.246987718     8.620903329
 C      -10.228922697     6.522923946     9.331167073
 C       -6.274055296     2.053379636     6.712927032
 C       -5.858110301     1.114396310     7.573106122
Si       -4.657291744    -0.216372461     7.216591325
 C       -4.631772537    -0.795225878     5.471324960
 C       -5.670500994    -0.508574374     4.578836108
 C       -5.617477301    -0.963761722     3.262852061
 C       -4.539829238    -1.736832005     2.814628547
 C       -3.508910032    -2.031935792     3.711946813
 C       -3.551999317    -1.567242221     5.024162159
 C       -4.520645423    -2.194611588     1.429379696
 C       -3.531814649    -2.928707189     0.891987017
 C       -3.488340725    -3.398356355    -0.487359022
 C       -4.499079212    -3.123440103    -1.411780494
 C       -4.412420458    -3.595096200    -2.721441493
 C       -3.305965037    -4.343145774    -3.135504866
 C       -2.288741709    -4.616373812    -2.211065987
 C       -2.380866312    -4.149728341    -0.903382565
Si       -3.172966407    -4.974278636    -4.858746878
 C       -4.808205899    -4.901807163    -5.750853096
 C       -1.907894863    -3.892463912    -5.785397987
 C       -2.523494460    -6.761487451    -4.805597853
 C       -2.914069240     0.416862319     7.653340315
 C       -5.083727807    -1.684684711     8.349720966
 C       -3.511718027    13.647080209     0.140761657
 C       -5.697473244    12.415429679    -1.666850923
 C       -0.650762303    -0.942529387    -1.524105002
 C       -0.662886975    -0.898618320     1.544635820
 H        1.153732859     2.725348673    -0.578534332
 H        0.176902734     4.952749883    -0.556333293
 H       -3.638197497     3.310220341     0.571050341
 H       -2.700294055     1.067667984     0.584500173
 H       -3.492577127     5.592520238     0.294411548
 H       -0.762565005     6.815506807    -0.505445794
 H       -0.732970045     9.180424112    -0.745048192
 H       -1.812053378    11.364676543    -0.697663379
 H       -5.553861606     9.432052149     0.404727002
 H       -4.441640550     7.283232585     0.338858864
 H       -6.771619891    12.678454867     1.284671979
 H       -4.613184280    10.793114437     2.532977854
 H       -4.944872235     9.956134348     4.609291668
 H       -6.242507697     9.690060416     6.664630236
 H       -9.418033833    12.067527900     4.932864269
 H       -8.027043276    12.470375094     2.965999002
 H      -10.610273177    10.802852307     8.046148342
 H      -10.687641648    10.412209135     6.300494943
 H      -10.242168035    12.059835066     6.857393287
 H      -10.961478916     7.342205048     9.418757680
 H       -9.317425215     6.807678543     9.881134523
 H      -10.682802621     5.642139134     9.820933899
 H       -8.800876449     5.723658937     5.547038915
 H       -7.178873198     3.958293440     5.070419844
 H       -7.539906864     2.515159478     9.108957684
 H       -9.111694687     4.305274442     9.622745169
 H       -5.914053074     2.114184139     5.676988354
 H       -6.231471539     1.098209223     8.610473220
 H       -6.548372362     0.072000323     4.879671607
 H       -6.429762487    -0.720224622     2.580767456
 H       -2.658096470    -2.630475551     3.389617000
 H       -2.712830700    -1.827072677     5.676089612
 H       -5.385066855    -1.894611438     0.831449015
 H       -2.671590824    -3.230985282     1.499710002
 H       -5.368742578    -2.540801795    -1.113845781
 H       -5.236943340    -3.356920915    -3.398943394
 H       -1.401456530    -5.196719164    -2.479287994
 H       -1.583029252    -4.374444211    -0.197728967
 H       -7.428087142     9.501978096     8.345204014
 H       -9.141974524     9.349423475     8.755402452
 H       -8.211226877     8.297112420     6.017015603
 H       -7.747349811     7.391026366     7.439183417
 H      -10.685691887     8.143794393     7.401790145
 H      -10.191729598     7.137395239     6.036882836
 H        2.263324254    -1.029696369     0.009771553
 H        2.260098612     0.519136595     0.891487396
 H        2.272061001     0.506188242    -0.892532573
 H       -4.722664762    -5.311501188    -6.773261514
 H       -5.182999181    -3.866911485    -5.838481844
 H       -5.575521043    -5.494289337    -5.220047645
 H       -1.894858610    -4.275499547    -6.846253596
 C       -2.314459592    -2.407690004    -5.818111745
 C       -0.479969985    -3.997730781    -5.220441112
 H       -1.508248500    -6.709462535    -4.314571609
 C       -3.411378744    -7.686450167    -3.953637015
 C       -2.339182073    -7.387488688    -6.199516232
 H       -2.231782765    -0.479454890     7.595422705
 C       -2.409905767     1.466692963     6.647297372
 C       -2.819395953     0.995871045     9.075603741
 H       -5.049849347    -1.282104167     9.403251146
 C       -6.502220922    -2.222206199     8.087841130
 C       -4.083905630    -2.849874118     8.253939130
 H       -2.817659764    13.613505663    -0.748468398
 C       -4.223715380    15.011755322     0.136479553
 C       -2.660233307    13.534320771     1.418440109
 H       -6.248561510    13.392920432    -1.547823225
 C       -4.811161465    12.514954707    -2.920920896
 C       -6.740793761    11.303735816    -1.880370806
 H       -0.536320666    -2.039121248    -1.279874546
 C       -2.139768778    -0.674304852    -1.803433821
 C        0.143743505    -0.659411296    -2.811307386
 H       -1.764714560    -1.061378866     1.349181497
 C       -0.009848817    -2.273335180     1.776075031
 C       -0.537388394    -0.065204756     2.832366020
 H       -3.295823968    -2.233227606    -6.277590007
 H       -1.591034297    -1.832034067    -6.413449885
 H       -2.327789639    -1.945411152    -4.819868477
 H       -0.075680338    -5.017470836    -5.244827087
 H       -0.400352759    -3.627598490    -4.187912158
 H        0.206842077    -3.382443395    -5.819975915
 H       -3.544533290    -7.330765477    -2.921923583
 H       -2.954525076    -8.683532168    -3.878028916
 H       -4.410983903    -7.836811489    -4.382661141
 H       -1.660814062    -6.816600609    -6.846709353
 H       -3.286505057    -7.517088686    -6.739527404
 H       -1.900492490    -8.391575593    -6.104815966
 H       -2.385685107     1.101149532     5.610469983
 H       -1.379996683     1.761870683     6.893155390
 H       -3.005636463     2.390741261     6.657411469
 H       -3.096495852     0.278660117     9.858306362
 H       -3.435902834     1.895814221     9.211664111
 H       -1.784183195     1.298827003     9.289496803
 H       -7.285674754    -1.458659658     8.190321495
 H       -6.745951231    -3.013118146     8.811188163
 H       -6.610326836    -2.674034175     7.091279079
 H       -3.055576438    -2.564735183     8.509331147
 H       -4.067228784    -3.318302551     7.259499051
 H       -4.365295908    -3.644840394     8.959931259
 H       -4.788688704    15.206046403    -0.783981635
 H       -3.484018028    15.821359862     0.218109395
 H       -4.910489321    15.137996059     0.985076582
 H       -2.074215580    12.606564749     1.473959062
 H       -3.260759505    13.599083174     2.337728420
 H       -1.936105141    14.359670398     1.464186933
 H       -4.093266932    13.344261239    -2.883304648
 H       -5.434629380    12.688910415    -3.809787391
 H       -4.246365290    11.592733818    -3.119549933
 H       -7.450098732    11.205123871    -1.047573041
 H       -6.284797302    10.317221089    -2.047971539
 H       -7.342810675    11.518653783    -2.774564610
 H       -2.791367704    -0.869025111    -0.939955105
 H       -2.498065373    -1.345355072    -2.599848043
 H       -2.332939622     0.351131978    -2.145284636
 H        1.207748289    -0.912451568    -2.730346586
 H        0.070543099     0.387056776    -3.136977628
 H       -0.256675416    -1.267050108    -3.637303872
 H       -0.111965264    -2.953986418     0.921238915
 H       -0.478578816    -2.774921674     2.634669377
 H        1.059640933    -2.199922337     2.015189193
 H       -1.017399063     0.921468664     2.758839632
 H        0.502949781     0.096490928     3.140643595
 H       -1.037429118    -0.581653123     3.665407531

