187   

Si        0.000000000     0.000000000     0.000000000
 C        1.865361616     0.000000000     0.000000000
 C       -0.669684470     1.715016422     0.000000000
 C        0.105986229     2.784329732     0.460045623
 C       -0.403551450     4.082440449     0.459024791
 C       -1.699975072     4.341060058     0.005942247
 C       -2.477868460     3.267933994    -0.448566338
 C       -1.971789895     1.970807983    -0.449565585
 C       -2.273671855     5.682658295    -0.012959950
 C       -1.634340726     6.792609898     0.393604360
 C       -2.204848753     8.135489027     0.376100274
 C       -3.501329182     8.397896618    -0.076443246
 C       -4.006239477     9.697252133    -0.075526059
 C       -3.220393822    10.764295908     0.374072553
 C       -1.921850902    10.505279664     0.828720962
 C       -1.423182169     9.204853605     0.832114387
Si       -3.885442224    12.479697180     0.375855880
 C       -2.518129765    13.679929721     0.526161136
 C       -2.440148395    14.699099393     1.392183765
 C       -1.305986055    15.623958588     1.453083287
 C       -1.313883463    16.661171399     2.393927929
 C       -0.257738263    17.557973066     2.482711579
 C        0.821038575    17.480312958     1.582307221
 C        0.825966341    16.441525546     0.629658356
 C       -0.211200882    15.522403153     0.587577878
 N        1.918086158    18.365453551     1.628257729
 C        1.886787064    19.467171585     2.599177798
 C        2.475830500    18.760251045     0.321654392
 C        0.915806432    20.604985952     2.240455932
 C        0.752525370    21.599746011     3.402200867
 N       -0.067163063    21.119334850     4.526631105
 C       -1.364483518    20.664793432     4.248731307
 C       -2.101998696    21.251375733     3.196897828
 C       -3.384059987    20.812844309     2.910986385
 C       -3.995795994    19.807806151     3.674211077
 C       -3.273797264    19.245965809     4.730061281
 C       -1.982603536    19.665053817     5.024516909
 C        0.683981949    20.422348214     5.580045926
 C       -5.352670553    19.383764284     3.326305440
 C       -6.034503260    18.435811212     3.982257186
Si       -7.726684366    17.870348104     3.589792393
 C       -8.748039102    17.878677667     5.120287773
 C       -8.374569883    18.667065481     6.213750912
 C       -9.145754706    18.676272661     7.375462486
 C      -10.309650853    17.908107992     7.466273440
 C      -10.684835804    17.124426665     6.366828024
 C       -9.915207225    17.109837561     5.206532093
 C      -11.147444861    17.886368777     8.660849563
 C      -10.902379772    18.588303240     9.780326047
 C      -11.740540276    18.566140665    10.974550780
 C      -12.902108149    17.795097069    11.066156027
 C      -13.674356584    17.803651501    12.227655332
 C      -13.303379940    18.590219417    13.322771672
 C      -12.138983699    19.365201294    13.233188435
 C      -11.367659321    19.350563359    12.074454121
Si      -14.311996192    18.612333917    14.862655814
 C      -15.986348342    17.834187042    14.597520590
 C      -13.400205876    17.652025275    16.229992100
 C      -14.508060696    20.420984047    15.423050124
 C       -8.544244825    18.990594493     2.289049771
 C       -7.645125466    16.100448450     2.901362883
 C       -4.783137581    12.795095733    -1.273209887
 C       -5.115339533    12.670342327     1.811321204
 C       -0.650830146    -0.915677578    -1.537017764
 C       -0.627254512    -0.910461441     1.548943900
 H        1.126986792     2.644865099     0.826093764
 H        0.222081644     4.897552502     0.818443132
 H       -3.490496383     3.446997572    -0.804874164
 H       -2.626007749     1.174230956    -0.814390212
 H       -3.297805054     5.737353175    -0.393027687
 H       -0.609930903     6.736572617     0.773855883
 H       -4.129468770     7.584487351    -0.434281788
 H       -5.026939663     9.841712184    -0.440054720
 H       -1.265839295    11.301824643     1.195203332
 H       -0.412601420     9.021014968     1.192178975
 H       -1.712339102    13.498124514    -0.205800169
 H       -3.222900657    14.920715610     2.129094668
 H       -2.159534772    16.772090132     3.075529825
 H       -0.299360369    18.336627622     3.240689591
 H        1.655073416    16.339855563    -0.064012539
 H       -0.170515931    14.715908650    -0.146255471
 H        3.238139571    19.545228715     0.450280724
 H        1.710661521    19.127686599    -0.381202941
 H        2.984816101    17.890987036    -0.132654265
 H        1.687291126    20.864670120     5.692859970
 H        0.798672173    19.339274987     5.401903185
 H        0.161475633    20.565704123     6.545208858
 H       -1.667834124    22.050255284     2.603519510
 H       -3.927624698    21.266165900     2.081140387
 H       -3.725126450    18.461624064     5.340443834
 H       -1.459119247    19.200155223     5.853334467
 H       -5.765508579    19.923652531     2.464085535
 H       -5.587628999    17.906054165     4.840311745
 H       -7.476019426    19.292795052     6.198217708
 H       -8.832312827    19.294174890     8.215032701
 H      -11.587861677    16.519258063     6.417267636
 H      -10.256809476    16.479116681     4.381446132
 H      -12.025597697    17.237779041     8.591546425
 H      -10.024298673    19.237270944     9.849285578
 H      -13.215022433    17.177248842    10.226443914
 H      -14.571771170    17.179024493    12.240119162
 H      -11.800427034    20.000217382    14.056800305
 H      -10.466023305    19.958190883    12.024290123
 H        1.640724051    19.036678497     3.596976360
 H        2.924120413    19.863865373     2.692608394
 H        1.273993637    21.138920579     1.341479224
 H       -0.071107130    20.185623443     1.953087632
 H        1.749838536    21.904529932     3.790608609
 H        0.281675410    22.539516903     3.023948512
 H        2.263530701    -1.029245506    -0.048279424
 H        2.276788607     0.473178232     0.908573924
 H        2.259277299     0.550209168    -0.874019399
 H      -16.604066420    17.897452430    15.511137610
 H      -15.903378381    16.767341251    14.325595043
 H      -16.537698079    18.346904968    13.788446005
 H      -14.093155144    17.658286704    17.120555739
 C      -13.133403521    16.185657985    15.843478613
 C      -12.070627076    18.299117148    16.657331003
 H      -13.462318731    20.800087906    15.615991530
 C      -15.137779260    21.309767563    14.335307271
 C      -15.312668550    20.576477386    16.725783752
 H       -7.826270218    19.033505908     1.419300022
 C       -9.886709005    18.444463539     1.770945445
 C       -8.760658877    20.425540597     2.803507669
 H       -8.716894726    15.785749351     2.739418896
 C       -6.916286017    16.009499716     1.550077410
 C       -7.003155843    15.112894878     3.890976159
 H       -5.681110767    12.112391214    -1.274545935
 C       -5.281448855    14.242185890    -1.426566687
 C       -3.913663209    12.435465239    -2.491866242
 H       -5.373736685    13.770111218     1.850927234
 C       -6.421060611    11.880571350     1.614632294
 C       -4.496853857    12.279307366     3.165893616
 H       -1.775644882    -0.921643414    -1.441545919
 C       -0.292878116    -0.194701073    -2.849242312
 C       -0.179824823    -2.378428163    -1.624733867
 H       -0.159552026    -1.936510107     1.513129118
 C       -0.183863088    -0.229035709     2.856448382
 C       -2.156595010    -1.083382230     1.575895109
 H      -14.046174811    15.623709049    15.607514385
 H      -12.654809832    15.656345346    16.679907733
 H      -12.451118026    16.087132487    14.986814485
 H      -12.186672181    19.321445498    17.038745124
 H      -11.327571996    18.322291536    15.847720046
 H      -11.615385957    17.717951930    17.472592700
 H      -14.582284323    21.293652945    13.386549349
 H      -15.150621263    22.358251990    14.665537685
 H      -16.179454290    21.043145496    14.112799907
 H      -14.882613174    20.023813193    17.571055282
 H      -16.360712010    20.265950078    16.621509495
 H      -15.334628902    21.633353915    17.029193723
 H       -9.802449938    17.458342502     1.296859080
 H      -10.295795069    19.118768476     1.004529829
 H      -10.652815891    18.376411985     2.556178332
 H       -7.840431079    20.909419602     3.158437561
 H       -9.494455919    20.478264947     3.620913681
 H       -9.152837922    21.060693533     1.996918566
 H       -7.334724491    16.669552171     0.779539746
 H       -7.000048529    14.986092833     1.153115617
 H       -5.841818872    16.232825808     1.628132943
 H       -7.491722364    15.101714039     4.875055200
 H       -5.932941185    15.303740507     4.052783179
 H       -7.079842592    14.086506752     3.501611093
 H       -5.984508902    14.546339307    -0.640365173
 H       -5.816546449    14.357673531    -2.379644990
 H       -4.462912288    14.976576058    -1.442411250
 H       -3.556067153    11.396073445    -2.480441673
 H       -3.035681346    13.086961820    -2.599069917
 H       -4.496105246    12.548360200    -3.417090593
 H       -6.983913596    12.185244313     0.723359377
 H       -7.092882220    12.041280942     2.470662821
 H       -6.260331431    10.794779362     1.557361828
 H       -3.576777503    12.831181028     3.403966866
 H       -4.262349775    11.207261291     3.233599116
 H       -5.204020415    12.491766922     3.980212683
 H       -0.645499575     0.846094614    -2.883167769
 H       -0.762653798    -0.706272299    -3.701272943
 H        0.786286202    -0.184142347    -3.052209076
 H       -0.466229959    -2.980388894    -0.752684902
 H        0.906610671    -2.471854085    -1.753690593
 H       -0.635399045    -2.867443873    -2.498070689
 H        0.905752147    -0.142735339     2.955577818
 H       -0.525188232    -0.815771509     3.721382229
 H       -0.611030749     0.776660616     2.979871833
 H       -2.545279294    -1.653901854     0.722931639
 H       -2.694324917    -0.125235040     1.613489779
 H       -2.456344174    -1.637819699     2.477096973

