187   

Si        0.000000000     0.000000000     0.000000000
 C        1.865652995     0.000000000     0.000000000
 C       -0.680939188     1.709871722     0.000000000
 C        0.147332450     2.819329200    -0.195596452
 C       -0.382572436     4.109625174    -0.193123585
 C       -1.750777483     4.320006003    -0.003508137
 C       -2.579886273     3.206759183     0.190177578
 C       -2.053394598     1.918218835     0.193889826
 C       -2.349308101     5.650660025     0.006725573
 C       -1.668929404     6.797386038    -0.161027818
 C       -2.268125149     8.127853700    -0.150684986
 C       -1.438833524     9.241551594    -0.338481043
 C       -1.965738602    10.530640441    -0.336380124
 C       -3.339670818    10.734495915    -0.161930551
 C       -4.170619280     9.623894099     0.023469047
 C       -3.637911105     8.335646617     0.034125433
Si       -4.060714271    12.427244103    -0.155239674
 C       -5.798871802    12.338576479    -0.716061543
 C       -6.870165458    12.872029981    -0.115136796
 C       -8.236528005    12.754966246    -0.632229827
 C       -9.289562564    13.352709531     0.076564705
 C      -10.595226895    13.267487179    -0.374677308
 C      -10.889272724    12.633755510    -1.597922544
 C       -9.838401557    12.040893232    -2.315153288
 C       -8.538841562    12.084256710    -1.819308198
 N      -12.243723928    12.573887291    -2.013938569
 C      -12.942496381    13.881111776    -2.047194332
 C      -12.509930636    11.770447042    -3.219683577
 C      -14.452447892    13.668072352    -1.827308222
 C      -15.139602686    14.966087318    -1.358693620
 N      -15.419187964    15.036425605     0.093597981
 C      -14.239198101    14.924562555     0.890592153
 C      -13.358757764    16.021579099     0.885373467
 C      -12.194478802    15.979609126     1.636995175
 C      -11.893777265    14.866831283     2.437027108
 C      -12.784280714    13.789908003     2.451984136
 C      -13.948012351    13.813163517     1.691435026
 C      -16.527229257    14.150624679     0.495306224
 C      -10.651468932    14.867247081     3.214169354
 C      -10.274078223    13.855592835     4.006585786
Si       -8.745170763    13.776817411     5.006610470
 C       -7.343521051    14.712855900     4.269943755
 C       -7.366177717    15.092870662     2.924617497
 C       -6.304675262    15.801691108     2.366940919
 C       -5.189891114    16.139170153     3.139453789
 C       -5.162954620    15.752413547     4.485579942
 C       -6.224767585    15.045649545     5.044998007
 C       -4.059602799    16.880396878     2.590784092
 C       -3.982106668    17.299239799     1.316295921
 C       -2.863729584    18.040781959     0.746095727
 C       -1.736113746    18.396093925     1.489837557
 C       -0.689786346    19.106321242     0.901059147
 C       -0.750301207    19.475242680    -0.446250559
 C       -1.879971801    19.117547628    -1.194888860
 C       -2.921590934    18.407780821    -0.605355641
Si        0.620693192    20.412523659    -1.240214327
 C        1.805475506    21.103430350     0.023541890
 C        1.574950349    19.248258605    -2.405685780
 C       -0.136401343    21.819624307    -2.274155490
 C       -9.091972777    14.409857168     6.762309574
 C       -8.252940762    11.937665685     5.081183519
 C       -3.908650433    13.194172249     1.572897868
 C       -3.092882848    13.516496477    -1.382674348
 C       -0.600915484    -0.929971157    -1.548735792
 C       -0.661280734    -0.897543165     1.542759444
 H        1.224816987     2.718021637    -0.351608240
 H        0.284439653     4.956596487    -0.343133140
 H       -3.648392465     3.348531640     0.341020509
 H       -2.748529736     1.089346223     0.354695925
 H       -3.431502876     5.664198133     0.166109896
 H       -0.586762257     6.784135619    -0.320322638
 H       -0.369826822     9.100963578    -0.484187173
 H       -1.269540867    11.361718686    -0.478299659
 H       -5.251775333     9.725658545     0.166827505
 H       -4.303027093     7.487644971     0.185300005
 H       -5.904781066    11.778766739    -1.661583367
 H       -6.805047322    13.436627095     0.825254934
 H       -9.089348835    13.870729197     1.017034838
 H      -11.404346844    13.689323393     0.222938700
 H      -10.021095336    11.542855184    -3.261460626
 H       -7.745068655    11.597428171    -2.387388214
 H      -13.599821819    11.670581194    -3.356227339
 H      -12.114115307    10.749543227    -3.072454051
 H      -12.081048140    12.191824061    -4.142447669
 H      -17.443903048    14.482762763    -0.022417641
 H      -16.709535016    14.260772713     1.578361128
 H      -16.368570686    13.084787469     0.269874020
 H      -13.600637047    16.899429835     0.289915328
 H      -11.511765882    16.829309819     1.613495529
 H      -12.568605087    12.909213468     3.058515036
 H      -14.610539943    12.952413275     1.705979967
 H      -10.063113459    15.786420573     3.094363286
 H      -10.909419421    12.959613185     4.115296066
 H       -8.208056065    14.849834601     2.265621987
 H       -6.352362720    16.088968894     1.316911581
 H       -4.303806105    16.004814088     5.103591873
 H       -6.147633287    14.771187771     6.100465930
 H       -3.250315776    17.080628943     3.297340644
 H       -4.800566480    17.099092764     0.615964495
 H       -1.665284558    18.121034433     2.540460650
 H        0.165867185    19.359103627     1.533215597
 H       -1.981908805    19.379989975    -2.251810454
 H       -3.790985909    18.138220779    -1.202842958
 H      -12.542929092    14.535996344    -1.237731603
 H      -12.762511682    14.416121705    -3.004354834
 H      -14.926541447    13.301570498    -2.753725062
 H      -14.597499764    12.860325624    -1.080341954
 H      -14.525377445    15.856176798    -1.623408393
 H      -16.106566039    15.099602352    -1.892636320
 H        2.263253219    -1.030009455     0.034404304
 H        2.262788956     0.538028316     0.879826938
 H        2.273860217     0.484149101    -0.904475974
 H        2.601501756    21.697442842    -0.460261672
 H        2.295299675    20.303537276     0.606007928
 H        1.282447965    21.767706501     0.735374256
 H        2.434640899    19.857506215    -2.809024713
 C        2.157633099    18.027225249    -1.670331140
 C        0.741121973    18.750987581    -3.599983891
 H       -0.798524867    21.319406607    -3.039569372
 C       -1.018035163    22.760415602    -1.433035400
 C        0.909974574    22.656036298    -3.031788150
 H       -8.162920990    14.190568872     7.364235953
 C       -9.333657261    15.929599074     6.795729923
 C      -10.275955780    13.699619860     7.442056080
 H       -9.073737771    11.421705652     5.657661716
 C       -8.177624577    11.300386202     3.682242104
 C       -6.925239106    11.691362576     5.816858054
 H       -4.489912605    14.163899533     1.528648362
 C       -4.532252073    12.316816912     2.671924176
 C       -2.461696001    13.533539399     1.972458916
 H       -2.025155132    13.518601670    -1.016400901
 C       -3.104182820    12.946746235    -2.812531024
 C       -3.580921400    14.974166137    -1.419283849
 H       -0.082513749    -1.931901263    -1.519957167
 C       -2.119084887    -1.181401657    -1.574644995
 C       -0.197184886    -0.220851736    -2.854602587
 H       -1.786154741    -0.887084054     1.447109910
 C       -0.209862923    -2.365593664     1.640692619
 C       -0.294285955    -0.171252140     2.849630019
 H        2.836112318    18.294447795    -0.850000514
 H        2.746230336    17.413491283    -2.367328744
 H        1.381373000    17.366139599    -1.258619036
 H        0.352197797    19.562111024    -4.228394881
 H       -0.107324829    18.121962734    -3.295631247
 H        1.363572602    18.126722800    -4.257759709
 H       -1.827906478    22.238432034    -0.903631557
 H       -1.504517838    23.502057783    -2.082628653
 H       -0.448244932    23.329880514    -0.686752946
 H        1.534250999    22.060520590    -3.710442225
 H        1.579708580    23.212625932    -2.362803891
 H        0.407295076    23.407862288    -3.657645578
 H       -8.499284256    16.513078260     6.381907103
 H       -9.460557587    16.269383551     7.833480819
 H      -10.245506555    16.230187078     6.260059681
 H      -10.145895456    12.612955052     7.523126691
 H      -11.233884218    13.886541049     6.936499114
 H      -10.395651811    14.070556507     8.470497530
 H       -9.121729928    11.357208852     3.122305645
 H       -7.935002996    10.231498760     3.766066369
 H       -7.394372420    11.742536438     3.047353517
 H       -6.919127645    12.063235505     6.848689485
 H       -6.061157541    12.130344822     5.296224112
 H       -6.725812174    10.611362384     5.880617595
 H       -5.575249630    12.034174226     2.469605284
 H       -4.547242955    12.868339542     3.624282489
 H       -3.967513610    11.392501334     2.852629625
 H       -1.979387721    14.248643016     1.293036101
 H       -1.816806434    12.647942104     2.045882431
 H       -2.451937006    14.006532217     2.965576911
 H       -2.731735800    11.914853060    -2.874596761
 H       -2.451851023    13.547367851    -3.462124669
 H       -4.101203855    12.967842538    -3.272741760
 H       -3.476300318    15.483564475    -0.450445036
 H       -4.625928499    15.070535359    -1.742671872
 H       -2.979208554    15.555372223    -2.132689366
 H       -2.482837069    -1.747006723    -0.707609918
 H       -2.385414495    -1.775323708    -2.461157466
 H       -2.703685551    -0.253256292    -1.642799509
 H        0.885829836    -0.073793664    -2.955243873
 H       -0.678097592     0.760912445    -2.973178603
 H       -0.507283072    -0.821944956    -3.721268728
 H       -0.500792771    -2.968971631     0.771170692
 H       -0.674699239    -2.843395649     2.515378709
 H        0.874875254    -2.472034912     1.773812182
 H       -0.636349317     0.873398394     2.875867716
 H        0.784776978    -0.171219120     3.052593360
 H       -0.770258137    -0.671233865     3.705160603

