187   

Si        0.000000000     0.000000000     0.000000000
 C        1.865041605     0.000000000     0.000000000
 C       -0.678978668     1.710405538     0.000000000
 C        0.145986762     2.819370095    -0.211426867
 C       -0.384369207     4.109704831    -0.208396723
 C       -1.747210649     4.318916492     0.015299588
 C       -2.572630981     3.206363477     0.229931031
 C       -2.047574955     1.917873271     0.220891876
 C       -2.351381794     5.645600588     0.028706936
 C       -1.689912012     6.798975184    -0.167085775
 C       -2.321353401     8.114409977    -0.148129494
 C       -3.691083881     8.274762775     0.080166871
 C       -4.265793333     9.543008369     0.092485643
 C       -3.491626152    10.679950867    -0.166811727
 C       -2.121601859    10.522343934    -0.404701606
 C       -1.543237218     9.254560672    -0.382777983
Si       -4.289837058    12.335966667    -0.140708064
 C       -3.315859022    13.600308822    -1.038974271
 C       -3.819954674    14.423186754    -1.968506232
 C       -3.053939255    15.437782167    -2.694056610
 C       -3.721020539    16.228538179    -3.642665868
 C       -3.051921867    17.204700441    -4.361311631
 C       -1.666275953    17.397504829    -4.177633437
 C       -0.994084039    16.601843680    -3.232976146
 C       -1.687083879    15.646332021    -2.498254464
 N       -1.017806608    18.400039247    -4.925748873
 C       -1.372507784    18.508236357    -6.353797055
 C        0.407103624    18.617003822    -4.640302885
 C       -1.407120112    17.169810770    -7.116615525
 C       -0.607595899    17.184585083    -8.432311508
 N        0.839931965    16.893716381    -8.307245786
 C        1.118172039    15.792513298    -7.451846008
 C        0.574787568    14.543283656    -7.811402090
 C        0.808013335    13.430457772    -7.021211463
 C        1.555780394    13.530889664    -5.837612201
 C        2.109830906    14.766490867    -5.498365686
 C        1.928766601    15.880242642    -6.311986810
 C        1.663216691    18.095765832    -8.101700688
 C        1.772544753    12.322988096    -5.039304563
 C        2.468009760    12.297658535    -3.894797941
Si        2.740116486    10.792602707    -2.896808305
 C        1.360549633     9.588651640    -3.050750928
 C        0.056754411    10.008832938    -3.339909956
 C       -0.974360622     9.078281325    -3.452139098
 C       -0.724341645     7.709725864    -3.292248017
 C        0.579327050     7.294974301    -3.002564086
 C        1.609843323     8.222981479    -2.875227901
 C       -1.825669135     6.760240258    -3.415817059
 C       -1.680686410     5.433141999    -3.264208318
 C       -2.745946272     4.445891549    -3.377312522
 C       -4.070157969     4.782592492    -3.663677420
 C       -5.048906806     3.792642250    -3.759871910
 C       -4.721786495     2.447949143    -3.562497386
 C       -3.393314663     2.109100237    -3.271735700
 C       -2.419196601     3.096962726    -3.181823170
Si       -5.986384738     1.118076191    -3.681776554
 C       -7.716022789     1.812360094    -3.737911178
 C       -5.677808686     0.080509755    -5.247194155
 C       -5.769984667    -0.016233909    -2.165967116
 C        4.384220106     9.989297649    -3.409955544
 C        2.845931038    11.318886952    -1.069334953
 C       -6.047480107    12.273577511    -0.874652210
 C       -4.398270872    12.858213930     1.688170250
 C       -0.613008738    -0.941432013    -1.537865975
 C       -0.665320850    -0.888585042     1.546599684
 H        1.220228041     2.717602455    -0.385052959
 H        0.276808154     4.957861616    -0.376058690
 H       -3.638641073     3.350191283     0.398087194
 H       -2.740716966     1.089206365     0.392471713
 H       -3.430567575     5.649126245     0.211356883
 H       -0.614279397     6.806086189    -0.364464176
 H       -4.321205725     7.405177585     0.257877274
 H       -5.338528182     9.602528438     0.298570216
 H       -1.469947190    11.373507671    -0.622196587
 H       -0.474260515     9.150064575    -0.571304942
 H       -2.255278590    13.651620474    -0.747668225
 H       -4.874814569    14.394274216    -2.275431040
 H       -4.787951484    16.081889279    -3.812400352
 H       -3.595617086    17.822723661    -5.069716850
 H        0.074393536    16.708620599    -3.075577305
 H       -1.142574905    15.040415651    -1.772369211
 H        0.761897922    19.509800786    -5.181508031
 H        1.046179186    17.758692594    -4.906456667
 H        0.531877433    18.831496401    -3.562249883
 H        1.484503684    18.794661586    -8.937440455
 H        2.731153688    17.815305493    -8.144386967
 H        1.473387813    18.624759325    -7.156126770
 H       -0.015465368    14.456148279    -8.720827924
 H        0.393778045    12.466064847    -7.318509487
 H        2.708467185    14.866051047    -4.592314413
 H        2.410190351    16.815491390    -6.043976464
 H        1.299638901    11.428660025    -5.469661783
 H        2.937022425    13.207271151    -3.489869067
 H       -0.196049950    11.066078796    -3.477871189
 H       -1.986337657     9.422794222    -3.661672616
 H        0.801188151     6.236946472    -2.874061647
 H        2.605495704     7.836838412    -2.641209810
 H       -2.799905519     7.201151826    -3.637952400
 H       -0.698815282     5.006712284    -3.029147131
 H       -4.347907590     5.824239946    -3.812061073
 H       -6.068429910     4.112948094    -3.987626367
 H       -3.079194116     1.073867647    -3.103653087
 H       -1.393420846     2.820391771    -2.937390430
 H       -2.374738449    18.996844116    -6.402605660
 H       -0.672915080    19.220384012    -6.842467695
 H       -1.044977874    16.348313835    -6.462475831
 H       -2.457068499    16.894504944    -7.332740150
 H       -1.023364002    16.408243748    -9.119620347
 H       -0.736760590    18.153621083    -8.958727409
 H        2.263154361    -1.029021642     0.049970252
 H        2.261152039     0.550202435     0.872653533
 H        2.275051289     0.471042765    -0.910292516
 H       -8.469293894     1.005855413    -3.778480348
 H       -7.868994551     2.454722636    -4.622878453
 H       -7.928293291     2.420054253    -2.839774150
 H       -6.493149276    -0.698956255    -5.261231186
 C       -5.791010069     0.913656435    -6.537165680
 C       -4.321937704    -0.649031551    -5.251562271
 H       -4.766952826    -0.518122362    -2.301026089
 C       -5.728968229     0.764384492    -0.839832886
 C       -6.836114468    -1.120899344    -2.067971784
 H        4.552066251     9.131141680    -2.697124379
 C        4.334831065     9.420725975    -4.839452762
 C        5.586741429    10.943065826    -3.293188030
 H        3.732217729    12.011427687    -0.995309244
 C        1.593867835    12.089368527    -0.611672443
 C        3.080341629    10.136024160    -0.113878523
 H       -6.337989431    13.353389165    -1.038613766
 C       -6.076363794    11.558855422    -2.238275498
 C       -7.119755411    11.652180810     0.037374831
 H       -5.045383404    12.080552724     2.187955885
 C       -3.026713775    12.854238449     2.386360174
 C       -5.057955091    14.233825255     1.884726352
 H       -0.069790021    -1.930281279    -1.518979424
 C       -2.124537518    -1.230720080    -1.522392992
 C       -0.255963412    -0.228634401    -2.854523358
 H       -1.789741978    -0.888324525     1.444238592
 C       -0.202336889    -2.351696596     1.661014046
 C       -0.312449644    -0.147287413     2.848744288
 H       -6.765854142     1.403461494    -6.656502152
 H       -5.663424250     0.266668798    -7.416692714
 H       -5.016742804     1.691085767    -6.612112404
 H       -4.187558197    -1.327502132    -4.399997386
 H       -3.467459830     0.042811664    -5.271692303
 H       -4.233479123    -1.270152979    -6.154610366
 H       -4.937968963     1.529476518    -0.814593258
 H       -5.527520378     0.079161530    -0.004423533
 H       -6.678061177     1.264385534    -0.607084159
 H       -6.883158717    -1.761325275    -2.958009097
 H       -7.845063813    -0.727072538    -1.887825353
 H       -6.611045751    -1.786855229    -1.222357804
 H        3.533751765     8.683084362    -4.988291971
 H        5.276114961     8.904145454    -5.073897005
 H        4.211693638    10.200069657    -5.605472609
 H        5.735302481    11.336402017    -2.279676995
 H        5.520905417    11.798789401    -3.979802869
 H        6.513503776    10.411759521    -3.554231211
 H        1.378532528    12.975754727    -1.224240716
 H        1.728660707    12.449012569     0.418128500
 H        0.690427125    11.461204749    -0.602890601
 H        4.010798449     9.590796488    -0.315537769
 H        2.256452131     9.407427397    -0.123083503
 H        3.156916531    10.498240926     0.921615459
 H       -5.388456477    11.996868408    -2.975590037
 H       -7.081196696    11.621687716    -2.677913270
 H       -5.837068334    10.488126867    -2.164571651
 H       -7.193345936    12.140402234     1.017745056
 H       -6.973266592    10.577907069     0.210371226
 H       -8.110407716    11.751655126    -0.429822344
 H       -2.511379242    11.884819549     2.325084602
 H       -3.150463778    13.066361314     3.457853150
 H       -2.344945727    13.621975701     1.996518931
 H       -6.075560707    14.292451268     1.477683930
 H       -4.475896078    15.053987293     1.440314538
 H       -5.141721205    14.461504556     2.956937962
 H       -2.432175727    -1.875254421    -0.689112045
 H       -2.416587124    -1.759112842    -2.441588697
 H       -2.735927422    -0.317009555    -1.480629904
 H        0.819744304    -0.047821734    -2.974972488
 H       -0.768533878     0.737511445    -2.970042322
 H       -0.559373045    -0.845537397    -3.712474963
 H       -0.479990460    -2.965137869     0.794309729
 H       -0.670514475    -2.826108207     2.535795890
 H        0.882013131    -2.447716476     1.804826810
 H       -0.666200951     0.893841971     2.863792619
 H        0.765433198    -0.133203633     3.057043059
 H       -0.786590569    -0.644810037     3.706668077

