187   

Si        0.000000000     0.000000000     0.000000000
 C        1.864883461     0.000000000     0.000000000
 C       -0.684522123     1.707428234     0.000000000
 C        0.122828874     2.814336997    -0.278944633
 C       -0.413197720     4.102349303    -0.274563150
 C       -1.764003957     4.310299307     0.013413905
 C       -2.571616457     3.199432910     0.291916854
 C       -2.041811889     1.913366498     0.282655399
 C       -2.373342141     5.634041166     0.031196323
 C       -1.730613202     6.786590213    -0.219913349
 C       -2.366988248     8.099394455    -0.194990462
 C       -1.587576863     9.228982457    -0.475064352
 C       -2.151727563    10.501346892    -0.462865963
 C       -3.513193464    10.671183276    -0.178264951
 C       -4.295587863     9.544420973     0.091776453
 C       -3.726911201     8.271750519     0.077421394
Si       -4.237915242    12.358530135    -0.167242302
 C       -5.789826926    12.506375776     0.785412109
 C       -6.129647349    11.777856149     1.856852690
 C       -7.393216625    11.944791388     2.579708512
 C       -7.656777203    11.131261543     3.692497936
 C       -8.839020531    11.256107518     4.404373865
 C       -9.803777947    12.206516672     4.014261610
 C       -9.539975489    13.029205059     2.908427155
 C       -8.342322735    12.901812679     2.213941476
 N      -10.996453878    12.296205911     4.773912444
 C      -11.759930034    11.037935630     4.904243714
 C      -11.843572578    13.472901529     4.519790312
 C      -11.855989861    10.174547692     3.635069885
 C      -12.396938882    10.958760429     2.426868074
 N      -12.665056673    10.118161935     1.245920840
 C      -11.590510431     9.336834837     0.771380066
 C      -10.274124149     9.843101803     0.818167064
 C       -9.211502353     9.083889191     0.354662688
 C       -9.421290253     7.822249539    -0.221710231
 C      -10.729112075     7.338033190    -0.297622507
 C      -11.802542447     8.077452350     0.181815226
 C      -13.982451249     9.461321999     1.309240728
 C       -8.274360891     7.048420140    -0.700403742
 C       -8.379985462     5.836649689    -1.263401943
Si       -6.985262806     4.829409510    -1.876852197
 C       -5.573796871     5.842381201    -2.474766702
 C       -5.776600899     7.154926061    -2.914995425
 C       -4.704385674     7.921554154    -3.368162652
 C       -3.417423929     7.381170344    -3.430854060
 C       -3.220937417     6.059762768    -3.010041572
 C       -4.285790442     5.297074416    -2.537892771
 C       -2.266101751     8.144675303    -3.897790189
 C       -2.316123996     9.416621944    -4.327464342
 C       -1.161661066    10.176230593    -4.793612852
 C        0.127011328     9.637776908    -4.835978762
 C        1.203475580    10.400169407    -5.289286628
 C        1.012862411    11.719645320    -5.710654592
 C       -0.280383943    12.258681025    -5.679004865
 C       -1.353636895    11.491846668    -5.235588027
Si        2.418117704    12.743266395    -6.312202379
 C        4.062031497    11.958717895    -5.909962767
 C        2.288469041    12.962122883    -8.198248413
 C        2.286087444    14.456619956    -5.491735802
 C       -6.405929550     3.713014279    -0.444495926
 C       -7.593254539     3.741707372    -3.311934211
 C       -2.971105484    13.589046008     0.539438332
 C       -4.632274666    12.836551442    -1.966952648
 C       -0.617751854    -0.911482944    -1.553407283
 C       -0.658746148    -0.908980918     1.537275365
 H        1.187400631     2.712195409    -0.504917192
 H        0.234694340     4.948312019    -0.495128317
 H       -3.627300126     3.342524006     0.521727978
 H       -2.720072723     1.085313522     0.506280146
 H       -3.443530841     5.639400944     0.267372418
 H       -0.664677034     6.794531137    -0.461230301
 H       -0.530590792     9.114836922    -0.707518400
 H       -1.493814420    11.344400207    -0.692434394
 H       -5.366801342     9.617284413     0.305519541
 H       -4.359330429     7.406857569     0.273653163
 H       -6.461388686    13.293668267     0.404114853
 H       -5.485629336    10.993304203     2.275399713
 H       -6.922895854    10.386222544     4.002265961
 H       -9.025365552    10.626325058     5.270702811
 H      -10.262149420    13.770413316     2.580493174
 H       -8.158215540    13.554836141     1.359509025
 H      -12.610801764    13.538040935     5.311021143
 H      -12.349499547    13.472556212     3.542544107
 H      -11.228123733    14.387527348     4.600032563
 H      -14.738480504    10.174797592     1.677242347
 H      -14.002338330     8.569597572     1.955631941
 H      -14.291203239     9.172692572     0.287745682
 H      -10.079563820    10.831153831     1.233481972
 H       -8.198985760     9.487302329     0.427661498
 H      -10.923179590     6.360689116    -0.741666576
 H      -12.799884688     7.658579265     0.102922568
 H       -7.312258542     7.560385926    -0.557997142
 H       -9.361172201     5.350709721    -1.381013119
 H       -6.765637028     7.624673734    -2.909521697
 H       -4.880351167     8.948739325    -3.682696809
 H       -2.224957628     5.621108761    -3.045458627
 H       -4.065999006     4.274308310    -2.216969712
 H       -1.317654401     7.599552546    -3.876567031
 H       -3.263552321     9.963256934    -4.341752325
 H        0.302294933     8.614140090    -4.509821739
 H        2.188311117     9.925953192    -5.298307145
 H       -0.489846803    13.282508500    -6.000902584
 H       -2.354125016    11.921071648    -5.236910903
 H      -11.262246984    10.444720578     5.709776179
 H      -12.778835860    11.272071034     5.282334027
 H      -10.856925768     9.757554439     3.386392529
 H      -12.496512875     9.296366912     3.836948589
 H      -13.331026305    11.496400949     2.700255686
 H      -11.666692355    11.745320180     2.119010296
 H        2.262865359    -1.029695820     0.042414868
 H        2.260853385     0.545196281     0.876147149
 H        2.274125510     0.477630131    -0.907411210
 H        4.899963440    12.598173869    -6.240381129
 H        4.178140607    10.977461986    -6.402544754
 H        4.171266611    11.804825491    -4.821150639
 H        3.200013195    13.554969489    -8.499609649
 C        2.321485084    11.619021049    -8.950477734
 C        1.041672422    13.746056225    -8.645535990
 H        1.308973844    14.895098540    -5.848827025
 C        2.228424416    14.371109479    -3.955516017
 C        3.412693379    15.422027982    -5.899857835
 H       -5.450302983     3.226332181    -0.795553498
 C       -6.102800866     4.519841157     0.831047463
 C       -7.403157046     2.593957499    -0.096116176
 H       -8.449888006     3.132322997    -2.903438435
 C       -8.122277862     4.577012329    -4.491491250
 C       -6.517597225     2.769905300    -3.828225211
 H       -2.075398645    13.544680178    -0.145844445
 C       -3.481410105    15.040607785     0.559685048
 C       -2.508887546    13.198560282     1.954285766
 H       -5.143639813    13.840203255    -1.920895196
 C       -3.375449306    12.981476704    -2.840004534
 C       -5.595501053    11.834611755    -2.628544760
 H       -0.131297639    -1.928881543    -1.524920308
 C       -2.143627257    -1.112377782    -1.584418364
 C       -0.188268181    -0.211822698    -2.856169231
 H       -1.782882457    -0.915736413     1.434350615
 C       -0.186486728    -2.370422739     1.635694472
 C       -0.310885488    -0.179311026     2.847384783
 H        3.225385960    11.029097131    -8.751525381
 H        2.301996214    11.794416794   -10.035706921
 H        1.453070783    10.982785894    -8.726362648
 H        0.980126365    14.752458752    -8.212793324
 H        0.103414137    13.221364405    -8.416063153
 H        1.056133749    13.882584771    -9.736794333
 H        1.406142506    13.740511357    -3.587166492
 H        2.065546864    15.370720942    -3.528203855
 H        3.159027230    13.993509833    -3.511736580
 H        3.472275266    15.587331656    -6.983399619
 H        4.402816359    15.093871791    -5.556640440
 H        3.242783076    16.409846335    -5.447324710
 H       -5.367511455     5.321905468     0.678815958
 H       -5.693265739     3.861295661     1.609702614
 H       -7.002478645     4.982323511     1.263879245
 H       -7.607440221     1.915951550    -0.934448209
 H       -8.367028140     2.975735649     0.266437525
 H       -6.998533758     1.967759976     0.712152014
 H       -8.938918644     5.257086395    -4.213010728
 H       -8.523605125     3.916123857    -5.272486263
 H       -7.338873909     5.180542084    -4.972763625
 H       -6.147096932     2.079905409    -3.059134261
 H       -5.648335113     3.286468010    -4.261639366
 H       -6.931045827     2.143117054    -4.631060156
 H       -3.767526371    15.415839755    -0.431032429
 H       -2.690286284    15.711353097     0.925018819
 H       -4.338039857    15.182825954     1.233170999
 H       -2.068155741    12.192705176     2.005402789
 H       -3.318075845    13.243197860     2.697069165
 H       -1.731512232    13.892727859     2.303244027
 H       -2.683691515    13.756240290    -2.484720541
 H       -3.659233943    13.272558522    -3.861503930
 H       -2.804302237    12.043762377    -2.928144528
 H       -6.556436769    11.743123048    -2.102536961
 H       -5.167740553    10.824341119    -2.712522779
 H       -5.833772846    12.157803798    -3.651253769
 H       -2.526775268    -1.675635887    -0.724236742
 H       -2.427340146    -1.688343144    -2.477340910
 H       -2.697302276    -0.164341870    -1.643086561
 H        0.899185610    -0.099885763    -2.953686185
 H       -0.637663500     0.784966801    -2.973394167
 H       -0.514896784    -0.800683823    -3.725278564
 H       -0.459412033    -2.975500216     0.761526938
 H       -0.653220145    -2.857676102     2.504163523
 H        0.898356991    -2.460968699     1.779793705
 H       -0.671868108     0.858902013     2.874359833
 H        0.767192536    -0.159843403     3.055171281
 H       -0.781054231    -0.689960194     3.699839650

