187   

Si        0.000000000     0.000000000     0.000000000
 C        1.865174380     0.000000000     0.000000000
 C       -0.670499380     1.714889983     0.000000000
 C        0.078420019     2.770192016    -0.531846008
 C       -0.427641049     4.069548638    -0.532748153
 C       -1.694830089     4.343132536    -0.010829534
 C       -2.446839876     3.284039208     0.514394157
 C       -1.943950058     1.985597815     0.517188990
 C       -2.264668404     5.686324294     0.009247875
 C       -1.650335857     6.785389764    -0.460429353
 C       -2.220217396     8.128570176    -0.440330505
 C       -3.488042149     8.401135698     0.082053216
 C       -3.994261139     9.700004549     0.081307909
 C       -3.237135244    10.756403172    -0.436650682
 C       -1.967482691    10.487581650    -0.961843020
 C       -1.468824384     9.187123929    -0.967013483
Si       -3.902262724    12.468049812    -0.438503406
 C       -2.549846208    13.676892555    -0.658551045
 C       -2.522398750    14.680530664    -1.543971054
 C       -1.405319911    15.621253605    -1.673752551
 C       -1.487259008    16.635910695    -2.639261606
 C       -0.454459212    17.548380866    -2.797689995
 C        0.698235600    17.440576582    -2.005548517
 C        0.799151550    16.419543210    -1.055710418
 C       -0.245919539    15.514358792    -0.900952232
 N        1.714791027    18.431896929    -2.241674226
 C        1.581368601    19.577868174    -1.315170960
 C        3.077593677    17.872546716    -2.291232361
 C        2.116111945    19.342660050     0.111389814
 C        1.400873686    20.222087322     1.154778209
 N        0.262428505    19.575090106     1.837421067
 C       -0.878110674    19.328986852     1.034771085
 C       -1.424638818    20.407038544     0.308984498
 C       -2.539556637    20.215203246    -0.489538132
 C       -3.170343294    18.964317645    -0.562032677
 C       -2.646767375    17.907997577     0.186047589
 C       -1.524707724    18.083954685     0.987983228
 C        0.681113394    18.475311430     2.722944626
 C       -4.344605066    18.821654956    -1.422775029
 C       -5.036165761    17.684742414    -1.580110400
Si       -6.499817342    17.551187060    -2.667674743
 C       -6.385605576    18.715814408    -4.085662772
 C       -5.135022970    18.987812643    -4.654082150
 C       -5.022238262    19.866733650    -5.729364014
 C       -6.155024680    20.482231988    -6.270073611
 C       -7.405833995    20.202165301    -5.705012477
 C       -7.521444895    19.328388077    -4.626060583
 C       -6.084657910    21.408740645    -7.395073407
 C       -4.951688711    21.761541410    -8.025876352
 C       -4.880909943    22.688004198    -9.150896483
 C       -6.011294846    23.308441136    -9.688780409
 C       -5.897882042    24.188071197   -10.765387081
 C       -4.647867093    24.470258685   -11.324921549
 C       -3.512264792    23.849344862   -10.786895868
 C       -3.629167008    22.968488278    -9.715423532
Si       -4.480272793    25.628541650   -12.745801309
 C       -6.060056680    26.571878197   -13.052612732
 C       -3.056261394    26.833074116   -12.365314308
 C       -4.042298758    24.649404630   -14.318190857
 C       -6.556935806    15.784174277    -3.371132928
 C       -8.064071602    17.851539915    -1.633328839
 C       -5.163816146    12.603557544    -1.855692311
 C       -4.778265480    12.875929261     1.198510572
 C       -0.629385458    -0.904976480    -1.551550860
 C       -0.648387787    -0.922976801     1.533799211
 H        1.075622041     2.618136165    -0.954124196
 H        0.177063519     4.873750635    -0.948070291
 H       -3.436732856     3.474825101     0.924592007
 H       -2.577680215     1.200211268     0.938191733
 H       -3.264949565     5.752111503     0.447333202
 H       -0.650164390     6.719522015    -0.898886958
 H       -4.092650609     7.596182727     0.495738247
 H       -4.992107310     9.852156874     0.501802653
 H       -1.334612561    11.275629854    -1.382779836
 H       -0.481513801     8.995053567    -1.383196932
 H       -1.712722269    13.517837475     0.043164075
 H       -3.339039302    14.874452348    -2.252854513
 H       -2.379895243    16.725548299    -3.259557159
 H       -0.522425147    18.349349101    -3.533508033
 H        1.692425545    16.321256994    -0.446458795
 H       -0.151760810    14.719697917    -0.160741060
 H        3.771681194    18.668179426    -2.610923075
 H        3.105352173    17.079148878    -3.059043430
 H        3.443798850    17.449754671    -1.344757628
 H        1.493271946    18.828823120     3.380708318
 H        1.029365634    17.574371628     2.193551649
 H       -0.165860578    18.197577616     3.376701267
 H       -0.971920880    21.392602242     0.380878114
 H       -2.937673351    21.054600352    -1.060945652
 H       -3.114730134    16.921531569     0.142774374
 H       -1.139404306    17.233911309     1.542315804
 H       -4.606479487    19.753098975    -1.946249046
 H       -4.764171490    16.765757896    -1.038936471
 H       -4.213139987    18.532633385    -4.274490636
 H       -4.038294740    20.069028162    -6.148982676
 H       -8.300184538    20.670785775    -6.111170399
 H       -8.523154215    19.149682101    -4.226348174
 H       -7.048372721    21.818796768    -7.711149715
 H       -3.988029157    21.350971484    -7.710062235
 H       -6.995717806    23.108424781    -9.269625796
 H       -6.818209678    24.642026631   -11.143159245
 H       -2.509272453    24.032769380   -11.182644878
 H       -2.735948988    22.494876597    -9.312329985
 H        2.112880251    20.434865290    -1.785802725
 H        0.501393307    19.857694380    -1.281015071
 H        2.000496561    18.276741857     0.385019482
 H        3.202766171    19.538604853     0.138463076
 H        2.123730525    20.532162418     1.944724037
 H        1.044789847    21.168220304     0.689996341
 H        2.262621013    -1.028505466     0.067815959
 H        2.259809334     0.566549971     0.863208476
 H        2.277293011     0.455747051    -0.917055164
 H       -5.939373895    27.290713899   -13.882754793
 H       -6.359350357    27.146794318   -12.157486262
 H       -6.894397139    25.898177307   -13.315343444
 H       -2.135584847    26.192487578   -12.237019046
 C       -2.779200782    27.834397439   -13.500713572
 C       -3.275647027    27.608978726   -11.053881138
 H       -4.018582918    25.409183913   -15.152315706
 C       -2.664902432    23.965184468   -14.259148579
 C       -5.103770929    23.590230558   -14.667854426
 H       -6.479334579    15.092148897    -2.480694618
 C       -7.867597921    15.460937093    -4.108040026
 C       -5.373820879    15.496717129    -4.312615653
 H       -8.936668091    17.730464194    -2.337843187
 C       -8.232221542    16.834960012    -0.488892804
 C       -8.115607818    19.274992989    -1.050547696
 H       -5.396690166    13.705056632    -1.963186322
 C       -4.585763853    12.103163235    -3.191954151
 C       -6.485857097    11.867144589    -1.580182709
 H       -5.624579261    12.136143262     1.292994009
 C       -3.857777157    12.701075593     2.419343044
 C       -5.376936288    14.294454008     1.219556827
 H       -0.162030633    -1.931253663    -1.520361084
 C       -2.158980510    -1.076516029    -1.575075299
 C       -0.188775846    -0.218806099    -2.857393144
 H       -1.773664478    -0.922551619     1.444154136
 C       -0.185038060    -2.388997270     1.608424181
 C       -0.279151553    -0.213980505     2.849482534
 H       -2.540727544    27.351990442   -14.457414399
 H       -1.910076188    28.458608890   -13.246561904
 H       -3.613487578    28.526962561   -13.674113206
 H       -3.423542247    26.954733719   -10.182718770
 H       -4.130150111    28.296996462   -11.099618454
 H       -2.393708146    28.225396148   -10.828421877
 H       -1.836890352    24.665141869   -14.090208912
 H       -2.453112154    23.465782389   -15.215938351
 H       -2.609835465    23.183392111   -13.488582702
 H       -6.107988466    24.009162725   -14.811780892
 H       -5.180104215    22.796029793   -13.911225314
 H       -4.841188324    23.091238390   -15.611731750
 H       -8.758173285    15.546651381    -3.472691069
 H       -7.849425521    14.423135363    -4.471397982
 H       -8.028412723    16.090725086    -4.994335153
 H       -4.391905330    15.679447887    -3.854997666
 H       -5.418762204    16.082116332    -5.242458911
 H       -5.381859330    14.439617482    -4.616324675
 H       -8.287000638    15.794810566    -0.834874285
 H       -9.171308523    17.028477926     0.049185531
 H       -7.431084867    16.900884072     0.261132703
 H       -8.057857028    20.062638633    -1.814392955
 H       -7.316410838    19.466250491    -0.319230506
 H       -9.064275219    19.432050966    -0.518449364
 H       -3.684028851    12.646000742    -3.507843685
 H       -5.324770905    12.230732844    -3.995776299
 H       -4.335994213    11.032381926    -3.177363676
 H       -7.009868007    12.229652321    -0.686754426
 H       -6.358404317    10.780548180    -1.478406733
 H       -7.178988444    12.013777722    -2.421720751
 H       -3.422950043    11.694949642     2.497342801
 H       -4.427430378    12.858571177     3.346321612
 H       -3.030303220    13.423844715     2.440015972
 H       -6.102066279    14.474972636     0.414718466
 H       -4.611726814    15.082514254     1.163272948
 H       -5.917633475    14.459886959     2.162296714
 H       -2.545445301    -1.653045340    -0.725094745
 H       -2.461849746    -1.624101552    -2.479423004
 H       -2.696388189    -0.117910467    -1.603784576
 H        0.900554496    -0.131377665    -2.958352237
 H       -0.617262574     0.786784962    -2.976865032
 H       -0.531128210    -0.803094582    -3.723629455
 H       -0.474859844    -2.981900380     0.731331375
 H       -0.643101771    -2.883183188     2.477617651
 H        0.900910354    -2.489300961     1.736175055
 H       -0.623666038     0.829057261     2.893110056
 H        0.801099048    -0.212897588     3.047269452
 H       -0.748489367    -0.728753201     3.699894773

