187   

Si        0.000000000     0.000000000     0.000000000
 C        1.865123419     0.000000000     0.000000000
 C       -0.682712230     1.709373989     0.000000000
 C        0.124587401     2.810707140    -0.301144822
 C       -0.405475376     4.101016342    -0.297589961
 C       -1.752937659     4.319106906     0.000461252
 C       -2.561574846     3.213820751     0.298179509
 C       -2.035258906     1.925238117     0.297462866
 C       -2.351796993     5.649495367     0.016501530
 C       -1.692240692     6.790273954    -0.247140652
 C       -2.294598414     8.119321046    -0.230146496
 C       -1.489896464     9.228075937    -0.525088825
 C       -2.021314065    10.515161540    -0.520909316
 C       -3.375834474    10.721737704    -0.231454706
 C       -4.181777203     9.616896276     0.062650656
 C       -3.643742481     8.330560733     0.067224109
Si       -4.089464372    12.417363259    -0.222869547
 C       -5.902113224    12.320904862    -0.431311573
 C       -6.816407007    12.930782146     0.334294929
 C       -8.261716512    12.822803612     0.127014951
 C       -9.124819105    13.508366407     0.994981531
 C      -10.499207560    13.438583623     0.841371244
 C      -11.061943777    12.707963715    -0.227785951
 C      -10.197947876    12.020303150    -1.098867272
 C       -8.822921384    12.064866236    -0.903580863
 N      -12.462952549    12.654539990    -0.358986352
 C      -13.191539204    13.911612927    -0.106146668
 C      -12.998123651    11.901064074    -1.504222123
 C      -12.685645650    15.103798365    -0.945061702
 C      -13.794600870    16.143906853    -1.190187394
 N      -14.422518553    16.065170869    -2.530581377
 C      -14.936753676    14.773609447    -2.834394492
 C      -15.994482143    14.294467112    -2.036121995
 C      -16.538763658    13.044803858    -2.280978499
 C      -16.077249697    12.252386725    -3.344008538
 C      -15.046037258    12.743340916    -4.147012277
 C      -14.481756777    13.991916289    -3.905164175
 C      -13.582961877    16.676562517    -3.576632385
 C      -16.687702889    10.938869679    -3.558206949
 C      -16.331548414    10.096468665    -4.536962686
Si      -17.096475796     8.456101314    -4.801567544
 C      -17.687042909     7.729303903    -3.218723715
 C      -16.974555403     7.976100705    -2.037243376
 C      -17.404356426     7.435602278    -0.828609793
 C      -18.546441250     6.625743536    -0.771129970
 C      -19.249249666     6.374473316    -1.952618743
 C      -18.824094082     6.917741761    -3.164741860
 C      -18.957395911     6.082201569     0.519176498
 C      -20.031585000     5.297990654     0.712241422
 C      -20.442672882     4.754372234     2.002467918
 C      -19.740740339     5.004962554     3.184316265
 C      -20.169537012     4.464640760     4.396679543
 C      -21.308982854     3.656073154     4.451859217
 C      -22.014406394     3.402681410     3.267576197
 C      -21.586703977     3.946989134     2.059885117
Si      -21.888891225     2.934872232     6.043334769
 C      -20.614339833     3.130556817     7.391268021
 C      -23.491510324     3.804202691     6.590586130
 C      -22.266167124     1.091324218     5.756335341
 C      -18.534884801     8.633767463    -6.031703704
 C      -15.784277805     7.301706835    -5.552079338
 C       -3.625050765    13.280298947     1.406586343
 C       -3.366371930    13.416894702    -1.672039362
 C       -0.612663891    -0.923685784    -1.547630347
 C       -0.655139709    -0.905668510     1.541358969
 H        1.185638270     2.702943158    -0.542378415
 H        0.245001126     4.941520176    -0.532251043
 H       -3.614077558     3.361714609     0.533048513
 H       -2.714457021     1.102549149     0.538302850
 H       -3.416776327     5.668135272     0.266864163
 H       -0.627657677     6.772890667    -0.497528027
 H       -0.436870133     9.084800979    -0.758699750
 H       -1.345416140    11.342178282    -0.754418214
 H       -5.246214143     9.721103403     0.298700330
 H       -4.289666405     7.486801072     0.303242935
 H       -6.205703052    11.697079120    -1.288888021
 H       -6.548835595    13.564384215     1.189881820
 H       -8.709903979    14.097491714     1.813204620
 H      -11.145607535    13.948728753     1.549828563
 H      -10.590929757    11.446027196    -1.931921525
 H       -8.175795102    11.509043923    -1.584126650
 H      -14.101885311    11.860660263    -1.438695926
 H      -12.637511407    10.858239461    -1.459620872
 H      -12.738170483    12.335449765    -2.483245308
 H      -13.425627525    17.739903441    -3.323073500
 H      -14.121753671    16.653918764    -4.540094452
 H      -12.598386926    16.201371520    -3.707047512
 H      -16.385992841    14.917105921    -1.234264863
 H      -17.348740578    12.679645520    -1.647965492
 H      -14.673609245    12.147985704    -4.981682785
 H      -13.676866979    14.341459540    -4.545079475
 H      -17.472990491    10.701538647    -2.826111413
 H      -15.551025675    10.362135724    -5.266200092
 H      -16.071626111     8.596459444    -2.022697606
 H      -16.842060395     7.643413870     0.080198123
 H      -20.139110393     5.748005541    -1.935908585
 H      -19.414550502     6.684625673    -4.054906989
 H      -18.313255629     6.360697566     1.358621321
 H      -20.675160066     5.019337682    -0.127329499
 H      -18.848227639     5.627914485     3.168016155
 H      -19.579311462     4.696466984     5.287678759
 H      -22.911273773     2.776963777     3.249726173
 H      -22.148160682     3.739563731     1.150969106
 H      -14.274011752    13.729002333    -0.299558867
 H      -13.114761671    14.144082487     0.979969531
 H      -11.820672482    15.573218595    -0.441433034
 H      -12.285272981    14.738491708    -1.910749641
 H      -14.605112981    16.045716812    -0.433788344
 H      -13.390770658    17.172814255    -1.062269876
 H        2.262298565    -1.029568300     0.051605501
 H        2.261519007     0.552499216     0.871318122
 H        2.275121795     0.469144397    -0.911456953
 H      -20.954637537     2.661192046     8.331626716
 H      -20.406123693     4.193234975     7.606737656
 H      -19.660245592     2.650186375     7.107779522
 H      -23.746693444     3.364376432     7.597934964
 C      -23.307665383     5.322937865     6.765300990
 C      -24.683227407     3.557720427     5.648363857
 H      -23.068915346     1.060313972     4.963233869
 C      -21.047670148     0.316795705     5.222363055
 C      -22.809159429     0.373784650     7.004819603
 H      -18.934215427     7.591359492    -6.197546721
 C      -19.676958228     9.502370381    -5.474723680
 C      -18.100150775     9.196805247    -7.396636529
 H      -15.467541306     7.778025757    -6.524452868
 C      -14.539855647     7.173858562    -4.654893172
 C      -16.324967519     5.895283219    -5.861761449
 H       -4.172634530    14.267012693     1.402086091
 C       -4.081674778    12.483124324     2.642340926
 C       -2.119404795    13.572071187     1.536283350
 H       -2.255020834    13.475711589    -1.486163408
 C       -3.584739273    12.727691501    -3.030726868
 C       -3.913729994    14.853325952    -1.743559179
 H       -0.117114552    -1.936836783    -1.513526949
 C       -2.136371955    -1.139748346    -1.573823977
 C       -0.190671304    -0.229378660    -2.855491131
 H       -1.779624396    -0.911579721     1.442228248
 C       -0.184123347    -2.367509570     1.641085323
 C       -0.301903265    -0.174181444     2.849019243
 H      -22.526524615     5.588003937     7.489421763
 H      -24.238132336     5.774516582     7.138446607
 H      -23.073943293     5.836041923     5.821294725
 H      -24.930719569     2.495707299     5.526128598
 H      -24.531804490     3.987081339     4.648035710
 H      -25.586467155     4.037638840     6.052890355
 H      -20.637559429     0.739750229     4.294040880
 H      -21.332311959    -0.718841875     4.987779608
 H      -20.226367288     0.254466908     5.948562637
 H      -23.726646149     0.826789701     7.402194372
 H      -22.078370168     0.325305572     7.822986764
 H      -23.062866698    -0.667570871     6.758278315
 H      -20.086158851     9.131032467    -4.524900280
 H      -20.516329916     9.523238379    -6.184052102
 H      -19.379862532    10.549619664    -5.318224679
 H      -17.338393593     8.586633294    -7.898318690
 H      -17.718780440    10.225555384    -7.333119531
 H      -18.961796638     9.231756945    -8.079236946
 H      -14.057549095     8.136339335    -4.436435833
 H      -13.780042557     6.553526961    -5.151314956
 H      -14.754706809     6.683236389    -3.694389819
 H      -17.160867871     5.895774354    -6.572889792
 H      -16.651536725     5.354003728    -4.962019629
 H      -15.535268031     5.280440728    -6.317779373
 H       -5.158579913    12.265780371     2.652403862
 H       -3.872706988    13.053546202     3.558140299
 H       -3.553441210    11.524563093     2.749496211
 H       -1.731527186    14.223146900     0.742693937
 H       -1.506634510    12.659698470     1.553487541
 H       -1.918129819    14.092098626     2.484250282
 H       -3.181308491    11.705969600    -3.070574468
 H       -3.073997614    13.290169769    -3.825113445
 H       -4.643428860    12.678115925    -3.320052719
 H       -3.712869306    15.440910005    -0.838496638
 H       -4.996607478    14.889763917    -1.930272278
 H       -3.440172518    15.395879046    -2.574127174
 H       -2.510209432    -1.712054202    -0.715454756
 H       -2.418822059    -1.712002258    -2.469549635
 H       -2.700398796    -0.197614427    -1.623496283
 H        0.895569149    -0.107984167    -2.954916724
 H       -0.649141186     0.762372150    -2.979173430
 H       -0.513074667    -0.826991333    -3.720183070
 H       -0.461541953    -2.974328094     0.769584959
 H       -0.647744802    -2.852193780     2.512676301
 H        0.901113767    -2.459181982     1.780852596
 H       -0.658502113     0.865572131     2.874418616
 H        0.776568504    -0.158786617     3.054748754
 H       -0.772691753    -0.680957815     3.703474180

