187   

Si        0.000000000     0.000000000     0.000000000
 C        1.864989429     0.000000000     0.000000000
 C       -0.681435557     1.710139782     0.000000000
 C        0.097449529     2.796041611     0.412653836
 C       -0.427880772     4.088147902     0.409088663
 C       -1.742874160     4.323450185    -0.000436010
 C       -2.523815530     3.233685837    -0.408194982
 C       -2.002290369     1.943037618    -0.406024042
 C       -2.336187705     5.656239200    -0.021363726
 C       -1.702553427     6.784350627     0.341799711
 C       -2.301712796     8.114829408     0.318603132
 C       -1.528035022     9.210667544     0.724416283
 C       -2.058163265    10.498186626     0.718629485
 C       -3.379983155    10.718550420     0.311318037
 C       -4.154371948     9.627086630    -0.095093387
 C       -3.617703325     8.340103658    -0.094341084
Si       -4.086917715    12.415945087     0.301034603
 C       -5.911961207    12.324942416     0.247649776
 C       -6.707190529    12.986879762    -0.602356694
 C       -8.168033554    12.881389219    -0.606616078
 C       -8.896867598    13.625615408    -1.547747275
 C      -10.278904550    13.560985286    -1.593220383
 C      -10.982868701    12.761144491    -0.668317806
 C      -10.257193268    12.010839274     0.270046229
 C       -8.867188206    12.060999547     0.280734344
 N      -12.393751766    12.730943499    -0.758968839
 C      -13.059198921    14.053961004    -0.725915369
 C      -13.082249087    11.711283718     0.049036540
 C      -12.408619671    15.109708940     0.182844265
 C      -12.351377857    14.675244877     1.658123523
 N      -11.428199055    15.490180694     2.466839247
 C      -11.727872131    16.855087257     2.614045404
 C      -13.068326363    17.296950591     2.581368728
 C      -13.368124682    18.641716754     2.726108959
 C      -12.361588632    19.589654156     2.959038194
 C      -11.037834360    19.146294106     3.024815549
 C      -10.717704738    17.804759721     2.865030411
 C      -10.014007170    15.137972048     2.249564121
 C      -12.736230450    20.996622258     3.103919405
 C      -11.865356986    21.990189159     3.328271731
Si      -12.338720842    23.746815101     3.508554942
 C      -14.026212139    23.932627504     4.217542360
 C      -14.497627954    22.993090531     5.141983470
 C      -15.773148381    23.116812290     5.690139882
 C      -16.600936575    24.186946920     5.338655786
 C      -16.123759700    25.130832998     4.420020338
 C      -14.851331532    25.007763732     3.866987225
 C      -17.942483866    24.356497690     5.887019034
 C      -18.516877736    23.525285802     6.773056610
 C      -19.858218552    23.693545493     7.322246965
 C      -20.689513865    24.759671286     6.969533790
 C      -21.965565646    24.881581261     7.519489211
 C      -22.441113592    23.933165673     8.430310488
 C      -21.609784430    22.861862145     8.784751504
 C      -20.334573758    22.746305289     8.238747532
Si      -24.122573564    24.079425014     9.165204249
 C      -25.158112389    25.342527334     8.264205170
 C      -24.956797826    22.370051874     9.089963138
 C      -23.973277421    24.600692923    10.989949352
 C      -11.091759845    24.588052508     4.673314819
 C      -12.245014814    24.586272206     1.803692416
 C       -3.581122685    13.323614484     1.895188451
 C       -3.401739824    13.371817170    -1.192998306
 C       -0.648438797    -0.913928671    -1.539478888
 C       -0.623118168    -0.916136771     1.547605548
 H        1.132810584     2.674225513     0.742702971
 H        0.200293464     4.916688581     0.731114691
 H       -3.550862778     3.394885827    -0.730459705
 H       -2.659740014     1.132866562    -0.733701841
 H       -3.374372308     5.688118332    -0.365653586
 H       -0.664822573     6.754687302     0.685990459
 H       -0.500465786     9.056547582     1.047949514
 H       -1.407801702    11.314600591     1.044454261
 H       -5.191363898     9.741916223    -0.427260510
 H       -4.238718873     7.507012804    -0.418728028
 H       -6.334217806    11.656324995     1.016958059
 H       -6.320402328    13.664827103    -1.374264818
 H       -8.368256953    14.258427277    -2.261568931
 H      -10.828733898    14.119158274    -2.347604039
 H      -10.766952038    11.382045661     0.993362504
 H       -8.323233574    11.456311761     1.008388189
 H      -14.135830114    11.650668932    -0.277248163
 H      -13.063252098    11.896871457     1.134036699
 H      -12.633395848    10.721429566    -0.150675174
 H       -9.911878153    14.055368749     2.053764257
 H       -9.443178710    15.355888965     3.170167731
 H       -9.552816293    15.672999895     1.403018776
 H      -13.876655431    16.586978898     2.435699514
 H      -14.409231177    18.963430130     2.672701919
 H      -10.234894625    19.862010731     3.207472761
 H       -9.677001358    17.503329562     2.927516549
 H      -13.819417814    21.165535565     3.017806108
 H      -10.784798839    21.796631956     3.401883349
 H      -13.892259495    22.136597384     5.458953791
 H      -16.119517251    22.368915393     6.401201400
 H      -16.752027261    25.971731726     4.133267738
 H      -14.533723774    25.775096755     3.155984035
 H      -18.478893971    25.236673338     5.520884443
 H      -17.980095146    22.645079320     7.139311310
 H      -20.344941634    25.508901241     6.259132124
 H      -22.569003738    25.737910724     7.206063228
 H      -21.928380902    22.089943753     9.490992564
 H      -19.703020113    21.908175007     8.527459734
 H      -13.061520639    14.431007428    -1.777795731
 H      -14.126536770    13.919703291    -0.445864760
 H      -11.384347281    15.338802217    -0.175539082
 H      -12.961903550    16.065349322     0.093403348
 H      -13.363055700    14.713596782     2.119592846
 H      -12.022457128    13.613597303     1.740847130
 H        2.262803687    -1.029427906    -0.048558453
 H        2.276345004     0.472720660     0.908918683
 H        2.259632764     0.550201828    -0.873707261
 H      -26.179479079    25.391329607     8.682244686
 H      -25.250400327    25.087619909     7.192809974
 H      -24.721817510    26.354382433     8.333834111
 H      -24.299896534    21.678601690     9.693998480
 C      -26.364214777    22.345397893     9.712236764
 C      -25.032319921    21.813968519     7.656474357
 H      -25.032218039    24.733341992    11.356265133
 C      -23.289947978    23.546855594    11.879581019
 C      -23.237028912    25.942199063    11.160996888
 H      -10.079545619    24.459640672     4.192227741
 C      -11.350295708    26.094532985     4.849364151
 C      -11.050039290    23.921872742     6.060343298
 H      -12.487178185    25.674538006     1.975849815
 C      -10.846704695    24.506983372     1.165219135
 C      -13.277663600    24.015537905     0.815150401
 H       -2.455020266    13.390697292     1.871307984
 C       -4.143034991    14.753872942     1.976311506
 C       -3.983995173    12.552821338     3.164900549
 H       -3.947730238    14.359385225    -1.205762922
 C       -1.893937894    13.664130079    -1.093900447
 C       -3.678313587    12.651712178    -2.525454696
 H       -1.773043919    -0.926043850    -1.442557539
 C       -0.296170228    -0.185801978    -2.849245098
 C       -0.169815360    -2.373738778    -1.633309901
 H       -0.144130600    -1.937058124     1.513528468
 C       -0.190260970    -0.228907993     2.855642726
 C       -2.150450853    -1.105760312     1.571802366
 H      -26.381288765    22.665308973    10.762129805
 H      -26.763064968    21.320629619     9.697021029
 H      -27.086424613    22.963324390     9.162448659
 H      -24.051713693    21.751128595     7.163200693
 H      -25.693841906    22.398507601     7.003508872
 H      -25.435231763    20.791249707     7.669417857
 H      -23.800320238    22.575515962    11.876242299
 H      -23.284421735    23.886021422    12.925835843
 H      -22.238385091    23.377205693    11.608298982
 H      -23.710420067    26.772034535    10.620715517
 H      -22.185306365    25.895468504    10.843461851
 H      -23.225366856    26.233136637    12.221212756
 H      -11.300614189    26.657973379     3.908976683
 H      -10.588069696    26.532492192     5.510027874
 H      -12.321185334    26.310348427     5.318133955
 H      -10.814643955    22.849364206     6.022506201
 H      -11.991703059    24.035310484     6.616765605
 H      -10.270046234    24.387359539     6.679274222
 H      -10.061232948    24.968103353     1.777340240
 H      -10.841310277    25.043019935     0.205229564
 H      -10.537229458    23.476208522     0.942173237
 H      -14.313679736    24.090304623     1.173734108
 H      -13.091097711    22.960864034     0.565248586
 H      -13.239148974    24.568800713    -0.133533692
 H       -3.825787413    15.393846742     1.142865215
 H       -3.788175930    15.245951498     2.893235736
 H       -5.241405714    14.780727786     2.017654368
 H       -3.584785256    11.529068855     3.198000536
 H       -5.072269869    12.489782509     3.300800860
 H       -3.590921679    13.063125648     4.055866599
 H       -1.621512863    14.259480290    -0.213251366
 H       -1.566306883    14.244881461    -1.968682604
 H       -1.280714550    12.751906395    -1.087639383
 H       -4.742088252    12.439601799    -2.699263648
 H       -3.136193752    11.698943778    -2.614755025
 H       -3.345743067    13.274576997    -3.367745133
 H       -0.655533195     0.852837883    -2.878893010
 H       -0.763806751    -0.696976611    -3.702745654
 H        0.782632674    -0.167786848    -3.053511086
 H       -0.449410539    -2.979959839    -0.762021637
 H        0.916601338    -2.460785146    -1.766888760
 H       -0.626157578    -2.862559366    -2.506403334
 H        0.897923775    -0.126842654     2.955763915
 H       -0.523706549    -0.820904041     3.720095364
 H       -0.631800842     0.770491637     2.979161473
 H       -2.532465701    -1.674781490     0.714826424
 H       -2.698333628    -0.153731915     1.615729540
 H       -2.444756698    -1.669562268     2.469029471

