187   

Si        0.000000000     0.000000000     0.000000000
 C        1.865343936     0.000000000     0.000000000
 C       -0.687877727     1.707029812     0.000000000
 C        0.133707403     2.822757968    -0.187377379
 C       -0.405301486     4.109419359    -0.184351773
 C       -1.775875854     4.309299789    -0.001916229
 C       -2.598375321     3.189815338     0.183707097
 C       -2.062947931     1.905152955     0.186559828
 C       -2.385703704     5.634619820     0.008924393
 C       -1.716984710     6.789233320    -0.151316971
 C       -2.333928981     8.111656308    -0.139305252
 C       -1.520955202     9.238366525    -0.318357645
 C       -2.067197291    10.519696561    -0.314005950
 C       -3.441092242    10.705044218    -0.119276933
 C       -4.255102410     9.580404395     0.059336330
 C       -3.707109381     8.299043782     0.043521722
Si       -4.191162867    12.385133586    -0.108499322
 C       -5.656847210    12.475884573     0.979905934
 C       -5.828262634    11.730495706     2.080254976
 C       -7.002662070    11.805227220     2.949759549
 C       -7.066126042    10.971013003     4.075669516
 C       -8.154592865    11.001947836     4.930884001
 C       -9.257509151    11.841207991     4.654366755
 C       -9.196317216    12.676031760     3.521221573
 C       -8.074755559    12.666665729     2.702537042
 N      -10.349991701    11.860063250     5.529988782
 C      -10.723674107    10.603634707     6.198407796
 C      -11.480174021    12.734296591     5.192312082
 C      -10.891996330     9.380097759     5.278267727
 C      -12.194414037     9.365918982     4.459145410
 N      -13.451593094     9.233640663     5.223266988
 C      -14.009221064    10.458464798     5.671183100
 C      -14.418329571    11.376737098     4.682840090
 C      -14.971251201    12.592386639     5.049119527
 C      -15.163936353    12.919787670     6.400300989
 C      -14.783926351    11.993337711     7.374029522
 C      -14.225330664    10.769152173     7.021469238
 C      -13.439182902     8.134224394     6.199701332
 C      -15.752964283    14.219456130     6.731558204
 C      -15.983646470    14.640336836     7.981537203
Si      -16.714817897    16.249071584     8.450812137
 C      -15.662047143    17.051802062     9.726987949
 C      -14.306682370    16.715491860     9.832235411
 C      -13.504498020    17.320160481    10.796799920
 C      -14.032451793    18.281456332    11.668675055
 C      -15.384166614    18.619371056    11.555122084
 C      -16.191830091    18.012945427    10.594224729
 C      -13.152098596    18.886808315    12.662675645
 C      -13.532637150    19.813895172    13.558025898
 C      -12.653161952    20.419857196    14.552388047
 C      -11.301860070    20.084373813    14.668501294
 C      -10.497344402    20.689137713    15.634343839
 C      -11.030398874    21.639487714    16.510758693
 C      -12.385957833    21.976933185    16.396824485
 C      -13.184898030    21.375871549    15.428407844
Si       -9.981849551    22.446685458    17.790884651
 C       -8.354542730    21.560172349    18.003215892
 C       -9.636435157    24.248075959    17.281972265
 C      -10.945288114    22.456174833    19.432684109
 C      -16.859661287    17.406344944     6.949273172
 C      -18.454743065    15.940202368     9.155093126
 C       -2.912512543    13.668164535     0.474382109
 C       -4.731426820    12.822301037    -1.879395802
 C       -0.597325383    -0.930927771    -1.549845786
 C       -0.660076013    -0.899990877     1.542074676
 H        1.212789358     2.729059970    -0.337314639
 H        0.256247875     4.961690363    -0.328282070
 H       -3.668717927     3.323463300     0.328568113
 H       -2.753423441     1.071053298     0.340858801
 H       -3.469198396     5.636927803     0.161557488
 H       -0.634067306     6.789468095    -0.304431594
 H       -0.449812409     9.114446899    -0.464608480
 H       -1.384175918    11.360213969    -0.463563789
 H       -5.336646230     9.665228450     0.211910633
 H       -4.362200289     7.440609404     0.179743468
 H       -6.407720666    13.219353080     0.672657136
 H       -5.089014460    10.988912005     2.415839017
 H       -6.237055005    10.295935118     4.292901716
 H       -8.154183211    10.378885433     5.820030917
 H      -10.020036903    13.337578270     3.274795753
 H       -8.045373164    13.335069496     1.840779999
 H      -12.245094385    12.694035770     5.990307661
 H      -11.971942018    12.474408763     4.240698758
 H      -11.128030046    13.781221834     5.142603004
 H      -13.140261716     7.204318319     5.684811397
 H      -14.465042220     7.979358712     6.580171886
 H      -12.766186432     8.290493757     7.057042241
 H      -14.306068198    11.117788556     3.631682923
 H      -15.275958674    13.296322033     4.274106161
 H      -14.927818781    12.223487294     8.430963101
 H      -13.946267946    10.068136937     7.802527855
 H      -15.988739560    14.824790059     5.846704183
 H      -15.742700620    14.003797725     8.849827475
 H      -13.839509118    15.975220665     9.174329561
 H      -12.454391825    17.042779294    10.869210551
 H      -15.818588135    19.363352467    12.220251838
 H      -17.241449634    18.316527405    10.553641725
 H      -12.118762415    18.528315239    12.637542735
 H      -14.565876414    20.172389224    13.582965734
 H      -10.863343856    19.344723669    14.001058520
 H       -9.447393278    20.386352371    15.676130220
 H      -12.857450075    22.712404657    17.054847728
 H      -14.235014127    21.651918096    15.354480724
 H       -9.932126999    10.386823446     6.956632700
 H      -11.657544943    10.772314257     6.782090515
 H      -10.037486267     9.327170800     4.570080097
 H      -10.817505965     8.459856893     5.887321887
 H      -12.244941602    10.280387634     3.826901192
 H      -12.167588174     8.502545803     3.750831335
 H        2.262931820    -1.030168357     0.031261781
 H        2.263003999     0.535373062     0.881240064
 H        2.273502075     0.486842870    -0.903151843
 H       -7.749343341    22.024607866    18.802269738
 H       -7.753798197    21.580452784    17.077025939
 H       -8.512830821    20.501947674    18.279851922
 H       -8.947701955    24.661993602    18.074204635
 C       -8.917761448    24.349673071    15.924065342
 C      -10.897357913    25.129708934    17.239378020
 H      -11.884692376    23.050666001    19.236453502
 C      -11.366668214    21.043624076    19.876473106
 C      -10.187855934    23.139117102    20.585299978
 H      -17.423030656    16.826119323     6.162208527
 C      -17.647662922    18.694322277     7.246788099
 C      -15.485394100    17.790277990     6.370315726
 H      -18.874994703    16.957798199     9.403124661
 C      -19.401245540    15.268031148     8.145221992
 C      -18.428229575    15.108453463    10.449669726
 H       -2.060989320    13.620681573    -0.263950527
 C       -3.457715452    15.107525289     0.477478821
 C       -2.355335226    13.342192397     1.871620997
 H       -5.168006341    13.861112766    -1.825698009
 C       -3.563025460    12.845291857    -2.880126605
 C       -5.822358646    11.872397836    -2.405861011
 H       -0.074282776    -1.930559134    -1.522065342
 C       -2.114157638    -1.189814223    -1.576428876
 C       -0.196688525    -0.218435437    -2.854756424
 H       -1.784798672    -0.893104876     1.445086044
 C       -0.203981821    -2.366590158     1.639585975
 C       -0.296342238    -0.173091046     2.849424306
 H       -7.961580687    23.811564109    15.894673289
 H       -8.685599861    25.400363132    15.698192349
 H       -9.531087107    23.983927469    15.087969498
 H      -11.424926193    25.182952100    18.200049105
 H      -11.618238558    24.806853844    16.475100701
 H      -10.623535959    26.163637153    16.982890015
 H      -11.961412437    20.510743028    19.120775425
 H      -11.995879366    21.102884063    20.775981656
 H      -10.513811466    20.403156876    20.137584989
 H       -9.912272775    24.179329863    20.368806801
 H       -9.273433000    22.603744384    20.873371086
 H      -10.821288802    23.169987881    21.483838034
 H      -18.680729152    18.509169936     7.567582455
 H      -17.715653445    19.311076482     6.338640441
 H      -17.166477272    19.325147282     8.007739166
 H      -14.867224091    16.925940196     6.092236271
 H      -14.892109411    18.409833424     7.058748620
 H      -15.614374450    18.385562100     5.455449336
 H      -19.538418022    15.847976739     7.223458858
 H      -20.401608898    15.151900828     8.586505858
 H      -19.073982626    14.258641180     7.857445815
 H      -17.800456906    15.548024011    11.237760519
 H      -18.086164504    14.076857696    10.289379406
 H      -19.441251737    15.034738929    10.870551467
 H       -3.803498451    15.444958623    -0.507718393
 H       -2.666328307    15.808065989     0.780955960
 H       -4.282479917    15.250169875     1.190023506
 H       -1.892891344    12.347528039     1.936643162
 H       -3.119765084    13.402272320     2.660259592
 H       -1.573177301    14.064256503     2.144802255
 H       -2.782394315    13.572228712    -2.622106279
 H       -3.927764226    13.128406943    -3.878112710
 H       -3.081259906    11.864048273    -2.998153779
 H       -6.719934064    11.845601577    -1.773007539
 H       -5.467954648    10.838085950    -2.522730041
 H       -6.156334152    12.196389893    -3.401637954
 H       -2.474943497    -1.759791896    -0.711036384
 H       -2.377443038    -1.782696683    -2.464647019
 H       -2.703606190    -0.264664684    -1.642327135
 H        0.885722240    -0.066706007    -2.955326250
 H       -0.681752105     0.761379892    -2.972274002
 H       -0.504192688    -0.819785473    -3.722240804
 H       -0.489796428    -2.969818587     0.768236122
 H       -0.670240010    -2.847234035     2.511968535
 H        0.880657551    -2.469462645     1.776373506
 H       -0.642659176     0.870060840     2.876416549
 H        0.782684937    -0.168826214     3.052743611
 H       -0.770353092    -0.675664507     3.704573618

