187   

Si        0.000000000     0.000000000     0.000000000
 C        1.864719174     0.000000000     0.000000000
 C       -0.652378224     1.723508650     0.000000000
 C        0.057419992     2.758853194     0.618456962
 C       -0.439699996     4.062351375     0.616366936
 C       -1.657268931     4.361275766    -0.000784836
 C       -2.370520108     3.322189646    -0.613279870
 C       -1.878944248     2.019782302    -0.608369253
 C       -2.223988045     5.704410279    -0.033383402
 C       -1.665689740     6.799638126     0.510242736
 C       -2.263228214     8.130755574     0.457880627
 C       -1.598545111     9.208124556     1.057177223
 C       -2.142951030    10.490789789     1.024257518
 C       -3.359194273    10.731167679     0.373619339
 C       -4.020487037     9.656094851    -0.231473032
 C       -3.479146884     8.373589553    -0.186901759
Si       -4.108932999    12.417186284     0.310603028
 C       -5.197843080    12.575866185    -1.162159826
 C       -4.972013580    11.898090232    -2.295943533
 C       -5.789767486    11.968908961    -3.509866657
 C       -5.404532223    11.186333715    -4.610101226
 C       -6.132632874    11.204511243    -5.791094766
 C       -7.279117639    12.006500421    -5.889935236
 C       -7.677408841    12.776994106    -4.793134023
 C       -6.943271990    12.750144029    -3.610633549
 N       -7.966011357    11.957874402    -7.153844630
 C       -7.688067060    13.074409934    -8.076323909
 C       -9.398322132    11.656789605    -6.985156007
 C       -7.947611896    14.515674838    -7.593786005
 C       -9.105381920    15.253428365    -8.300390795
 N      -10.413231680    15.299668583    -7.594351910
 C      -10.296235012    15.329239232    -6.182330587
 C       -9.600845196    16.419785825    -5.619431505
 C       -9.447952853    16.513710012    -4.247339893
 C       -9.940880742    15.510288308    -3.398724452
 C      -10.656963303    14.450398279    -3.958306306
 C      -10.881755185    14.382977731    -5.329353262
 C      -11.412357087    14.376514409    -8.153656948
 C       -9.754717241    15.654754962    -1.954586375
 C      -10.184690441    14.758666159    -1.057677053
Si       -9.978607072    14.890611567     0.751539707
 C       -9.277200554    13.294726315     1.341485152
 C       -8.648546510    12.442149751     0.426271193
 C       -8.108671004    11.227827872     0.845272162
 C       -8.171694485    10.847515323     2.188852456
 C       -8.796773844    11.705445227     3.103683978
 C       -9.346306889    12.915382559     2.686408769
 C       -7.619871839     9.586388535     2.670291235
 C       -6.998655762     8.681545296     1.894731619
 C       -6.447205227     7.420704484     2.377290133
 C       -6.518306860     7.035086030     3.717854857
 C       -5.978153641     5.820299902     4.138774010
 C       -5.337867873     4.974032305     3.228389517
 C       -5.263267613     5.359593479     1.883196760
 C       -5.818024420     6.564868450     1.463841236
Si       -4.621019961     3.369128999     3.769758600
 C       -4.906701782     3.074821256     5.590999817
 C       -5.359939820     1.901454443     2.811417447
 C       -2.756508411     3.462710370     3.395843174
 C       -8.770247364    16.287703567     1.204019660
 C      -11.658278065    15.218171524     1.571629220
 C       -5.104942429    12.683615690     1.915061598
 C       -2.725111906    13.712992467     0.116007042
 C       -0.649750990    -0.907014256    -1.544529109
 C       -0.650486238    -0.936761112     1.523045752
 H        1.015954891     2.586475519     1.115187432
 H        0.132649469     4.850169548     1.102478453
 H       -3.321627244     3.532208529    -1.099684755
 H       -2.483136384     1.251618372    -1.099236719
 H       -3.184261008     5.776315846    -0.554846999
 H       -0.709849506     6.740707650     1.036136178
 H       -0.649850208     9.043424037     1.563700470
 H       -1.586992715    11.288890524     1.523277871
 H       -4.981776079     9.776431773    -0.742742300
 H       -4.011581130     7.557023210    -0.671534794
 H       -6.042455923    13.273446289    -1.062322920
 H       -4.116332705    11.214124914    -2.410697023
 H       -4.517383084    10.557145753    -4.541980191
 H       -5.830249185    10.600179417    -6.645123023
 H       -8.575475444    13.391059096    -4.851850633
 H       -7.273167760    13.356064796    -2.765639461
 H       -9.827823044    11.408997548    -7.969640151
 H       -9.980085855    12.470922139    -6.530228402
 H       -9.501878959    10.760935805    -6.347000981
 H      -11.586185738    14.651124272    -9.209849263
 H      -12.375012587    14.510300444    -7.629278299
 H      -11.128817895    13.314499473    -8.114806516
 H       -9.198321318    17.190607693    -6.273103689
 H       -8.925007322    17.371680795    -3.824357023
 H      -11.074036102    13.671850589    -3.316741819
 H      -11.492645242    13.577686884    -5.727051043
 H       -9.227056885    16.575810465    -1.675689610
 H      -10.723164846    13.848520469    -1.372065583
 H       -8.561527001    12.689182651    -0.637931370
 H       -7.633523494    10.576357604     0.112221133
 H       -8.856940538    11.425110005     4.153116337
 H       -9.826434493    13.542201067     3.441706779
 H       -7.747533431     9.409050854     3.741526711
 H       -6.865708390     8.861235178     0.823113683
 H       -7.000537769     7.681524528     4.448372311
 H       -6.071932422     5.568526039     5.198368392
 H       -4.763662421     4.740573067     1.131572113
 H       -5.761363395     6.845819926     0.414113830
 H       -6.607891357    12.976424855    -8.346202657
 H       -8.256120699    12.872492714    -9.011758444
 H       -8.084760819    14.524318341    -6.495803343
 H       -7.021731714    15.107285961    -7.742473494
 H       -8.812055885    16.322478759    -8.443919565
 H       -9.256003698    14.840832670    -9.319964384
 H        2.264278748    -1.029037942    -0.036425253
 H        2.276617567     0.485690436     0.901741090
 H        2.257012273     0.540773969    -0.880761771
 H       -4.486970264     2.103922411     5.908451326
 H       -5.982504662     3.069546515     5.838059847
 H       -4.422996530     3.859086686     6.200493794
 H       -4.887541870     0.983255317     3.268315417
 C       -6.885937628     1.791915486     2.990094628
 C       -5.042087488     1.892579524     1.306170001
 H       -2.660206942     3.360654021     2.272893618
 C       -2.134390264     4.814197994     3.792196800
 C       -1.944025727     2.331682810     4.046666717
 H       -9.209927425    17.233678799     0.775343185
 C       -8.612539082    16.480963945     2.722867972
 C       -7.375130799    16.079877517     0.586186804
 H      -11.453445055    15.300267291     2.678545975
 C      -12.308464507    16.534012478     1.109342433
 C      -12.653522233    14.063585513     1.358337352
 H       -6.193007059    12.641802926     1.605300787
 C       -4.874182964    11.567261953     2.950338467
 C       -4.876495129    14.034882714     2.613337499
 H       -2.224785734    13.789486729     1.123067602
 C       -1.664926929    13.293136163    -0.919448328
 C       -3.248167001    15.108569950    -0.271872168
 H       -1.774411510    -0.917296040    -1.449476502
 C       -0.289952048    -0.179984533    -2.853021429
 C       -0.175858929    -2.368251731    -1.643880589
 H       -0.400690915    -2.022662818     1.342029141
 C        0.035975191    -0.511031210     2.832584734
 C       -2.176001623    -0.821217205     1.691488633
 H       -7.197687186     1.700421982     4.038404056
 H       -7.262447855     0.895073195     2.478448231
 H       -7.428321792     2.644282133     2.556927546
 H       -3.966450403     1.948604722     1.084437481
 H       -5.540059335     2.706589844     0.762501824
 H       -5.400128250     0.957018855     0.853471940
 H       -2.617057536     5.671387722     3.298485659
 H       -1.078556952     4.843120944     3.487690681
 H       -2.154639853     4.999597775     4.873067109
 H       -2.289982656     1.328571743     3.763633562
 H       -1.933641573     2.386859069     5.142730528
 H       -0.894212897     2.399226980     3.722278399
 H       -9.554098139    16.720662104     3.232866213
 H       -7.933551197    17.321640080     2.926777826
 H       -8.173265098    15.605141717     3.221811619
 H       -7.384394657    16.007106487    -0.509859763
 H       -6.873686245    15.177998447     0.970008956
 H       -6.721872696    16.927757788     0.833797025
 H      -11.691231696    17.419206908     1.309714231
 H      -13.256192052    16.693589399     1.643658820
 H      -12.556405812    16.536290980     0.038237941
 H      -12.274889480    13.091978455     1.706225257
 H      -12.954793396    13.946102467     0.308373293
 H      -13.576962351    14.252585333     1.924289253
 H       -5.093494786    10.560415095     2.562570248
 H       -5.545449276    11.707723098     3.809741152
 H       -3.852653118    11.550209541     3.349511975
 H       -5.094109544    14.900922654     1.975500284
 H       -3.856378942    14.150267123     3.000722845
 H       -5.548474339    14.121529918     3.480389616
 H       -1.185623492    12.330978057    -0.693609934
 H       -0.857049044    14.037348613    -0.954452791
 H       -2.068057334    13.227513415    -1.940186944
 H       -3.977646685    15.518834906     0.437952676
 H       -3.708369596    15.126161503    -1.270259686
 H       -2.415767973    15.825565976    -0.303496909
 H       -0.631630036     0.864336684    -2.881217324
 H       -0.765629280    -0.682356974    -3.707297898
 H        0.789015964    -0.178200431    -3.058361906
 H       -0.468839284    -2.981463543    -0.782155553
 H        0.911768012    -2.459099649    -1.764927462
 H       -0.623595396    -2.848161056    -2.526462454
 H        1.116932360    -0.701628791     2.834336821
 H       -0.376596086    -1.081269390     3.677396099
 H       -0.115724075     0.550555525     3.073050752
 H       -2.738984308    -1.210344906     0.833685862
 H       -2.511496088     0.212471632     1.867490703
 H       -2.504999128    -1.404653189     2.563322022

