187   

Si        0.000000000     0.000000000     0.000000000
 C        1.863981005     0.000000000     0.000000000
 C       -0.654521342     1.720041009     0.000000000
 C        0.180518055     2.810182247     0.266802097
 C       -0.327527483     4.109005869     0.263854451
 C       -1.682299781     4.343651962     0.014188050
 C       -2.518843032     3.249355688    -0.244044110
 C       -2.012935783     1.952732674    -0.252345617
 C       -2.261701625     5.682431964     0.000157151
 C       -1.574115492     6.815360987     0.220632991
 C       -2.152656332     8.154206617     0.206776846
 C       -3.507393756     8.389741273    -0.042816132
 C       -4.016792483     9.688333662    -0.046048022
 C       -3.176442570    10.781089754     0.187500871
 C       -1.815920158    10.548320251     0.429274022
 C       -1.312742659     9.251581121     0.436240634
Si       -3.813958913    12.508280496     0.190651268
 C       -2.838664494    13.517726954     1.366693728
 C       -2.276616836    12.985366497     2.460618989
 C       -1.485902769    13.721673030     3.444756891
 C       -0.965610097    13.014477565     4.537500987
 C       -0.208380275    13.652186493     5.505148801
 C       -0.010016865    15.046170955     5.457384331
 C       -0.545212931    15.759664953     4.366370151
 C       -1.248611461    15.096472131     3.368926596
 N        0.757112400    15.709496904     6.433439640
 C        1.095629526    14.971101057     7.659617486
 C        0.416778864    17.121587963     6.680194291
 C       -0.110535381    14.680080391     8.573711157
 C        0.207291410    13.596594475     9.621779350
 N       -0.170543316    12.223754562     9.238667320
 C        0.600840727    11.571522932     8.259929507
 C        1.995473676    11.784164002     8.210515690
 C        2.768627962    11.149227262     7.252755327
 C        2.207568154    10.223513652     6.360725154
 C        0.833821490     9.982743153     6.435206154
 C        0.037744425    10.639544274     7.366195504
 C       -1.629641512    12.036845876     9.165521212
 C        3.080442605     9.588189718     5.372731861
 C        2.682890941     8.689211615     4.462459740
Si        3.791825582     7.905926814     3.234580959
 C        3.604458203     6.076423655     3.226512522
 C        2.829414061     5.417476140     4.185067209
 C        2.702139673     4.028334332     4.158566804
 C        3.356805128     3.269565107     3.185335316
 C        4.134663499     3.932363135     2.226049469
 C        4.253281303     5.318628983     2.241680993
 C        3.254942425     1.816177196     3.116173545
 C        2.546120127     1.056434240     3.968119299
 C        2.446380601    -0.397616982     3.895986741
 C        3.093653879    -1.149437958     2.911974812
 C        2.971748109    -2.537777440     2.879236619
 C        2.191889128    -3.205222463     3.829569611
 C        1.538153621    -2.454232482     4.814571513
 C        1.663693389    -1.067985261     4.845397042
Si        2.040251275    -5.038666699     3.773810173
 C        3.591437754    -5.826683089     3.103497904
 C        1.661265765    -5.708016207     5.513432525
 C        0.570594364    -5.455735734     2.635928662
 C        3.297844923     8.545926632     1.507304410
 C        5.601376845     8.378211690     3.578864654
 C       -3.634118107    13.244738052    -1.552284775
 C       -5.647727686    12.540455137     0.690240404
 C       -0.645106647    -0.911442844    -1.540262314
 C       -0.615812021    -0.882177686     1.574174583
 H        1.245970135     2.688006932     0.484311934
 H        0.344484091     4.940524569     0.471072910
 H       -3.576413233     3.411853890    -0.440781842
 H       -2.711292594     1.137927326    -0.460814019
 H       -3.334595714     5.714575607    -0.209497805
 H       -0.500249881     6.781088990     0.430835604
 H       -4.180643235     7.556274871    -0.232388447
 H       -5.085372836     9.809294327    -0.241277077
 H       -1.108936158    11.366114533     0.610414685
 H       -0.251350197     9.094273589     0.625970054
 H       -2.750360043    14.585627488     1.129670208
 H       -2.370799019    11.916237911     2.712058380
 H       -1.131998472    11.938566060     4.619690151
 H        0.225810323    13.054553274     6.303830338
 H       -0.394314668    16.830826372     4.283305521
 H       -1.631440546    15.666439628     2.522056057
 H        0.971362078    17.505556580     7.551443447
 H       -0.658992729    17.284555391     6.854190076
 H        0.731258930    17.724535310     5.808577382
 H       -2.121525447    12.584111793     9.986551755
 H       -1.863905310    10.966151827     9.309596109
 H       -2.071085921    12.373783924     8.212331596
 H        2.473403643    12.447435249     8.926063435
 H        3.838045115    11.360165368     7.209444338
 H        0.369397604     9.271237773     5.749785324
 H       -1.026807963    10.427755468     7.381979666
 H        4.123586078     9.925589622     5.453741335
 H        1.630322856     8.372741601     4.390013939
 H        2.302500471     5.959340428     4.976537932
 H        2.084086441     3.538609246     4.909003668
 H        4.649415287     3.360083839     1.457030243
 H        4.863423701     5.782400643     1.461363402
 H        3.821163654     1.357954111     2.299700264
 H        1.986572384     1.514570439     4.789178410
 H        3.715447354    -0.656136861     2.166608563
 H        3.506136348    -3.071771137     2.088610454
 H        0.914396633    -2.921462735     5.581225158
 H        1.148148761    -0.501624061     5.618891848
 H        1.602236447    14.022895961     7.356935802
 H        1.866298762    15.554096970     8.212287519
 H       -0.427025211    15.610196252     9.078758611
 H       -0.981017183    14.374763851     7.959760634
 H        1.287680097    13.613096250     9.888160909
 H       -0.328664910    13.828756764    10.572664955
 H        2.262502846    -1.029523380     0.027255212
 H        2.256381417     0.538937431     0.882210560
 H        2.261609023     0.491798176    -0.905225837
 H        3.512909980    -6.928414654     3.109150452
 H        4.468831590    -5.553288688     3.717949933
 H        3.799406897    -5.513354497     2.065758311
 H        0.701267565    -5.210419460     5.838067853
 C        1.432528154    -7.230008024     5.546874547
 C        2.752294433    -5.344794955     6.537191083
 H        0.497796571    -6.580776880     2.623180950
 C       -0.766832246    -4.892684424     3.149374946
 C        0.784517707    -4.972858016     1.189556823
 H        4.180612263     8.342675201     0.835987533
 C        2.083476990     7.796506224     0.930779985
 C        3.015921356    10.057535533     1.485357610
 H        5.610935212     9.503368827     3.673609252
 C        6.115251410     7.778059768     4.900948106
 C        6.581304088     7.995826117     2.455543160
 H       -4.025299447    14.300841701    -1.487469243
 C       -2.165282442    13.306151230    -2.009320330
 C       -4.456793929    12.493462724    -2.613544902
 H       -6.194590813    11.931250278    -0.086142714
 C       -5.890615454    11.892285934     2.065373731
 C       -6.250656393    13.956726435     0.692825615
 H       -1.762342847    -0.997066681    -1.405558334
 C       -0.387272581    -0.131172725    -2.842430210
 C       -0.074623516    -2.333817505    -1.690246120
 H        0.173502200    -1.651151558     1.823626030
 C       -0.731693716     0.083288118     2.767940555
 C       -1.959141163    -1.615165929     1.413244829
 H        0.609514944    -7.559993954     4.899872279
 H        1.167008644    -7.547100707     6.565976089
 H        2.326404076    -7.804836882     5.270798843
 H        2.944625545    -4.264654477     6.605227081
 H        3.712118742    -5.837985301     6.332830213
 H        2.448081638    -5.666929290     7.543294386
 H       -1.038205967    -5.253526290     4.149200676
 H       -1.584907288    -5.197944935     2.481224460
 H       -0.783655716    -3.792416522     3.172942349
 H        1.671325917    -5.408136041     0.711928987
 H        0.865476483    -3.878134012     1.113249273
 H       -0.073576360    -5.262668174     0.566202631
 H        2.259289074     6.717385422     0.812376722
 H        1.847820406     8.179274611    -0.073162057
 H        1.178217154     7.918285490     1.543047639
 H        3.867334608    10.664864197     1.818357774
 H        2.149909595    10.342245046     2.101990140
 H        2.788623421    10.385180875     0.460798431
 H        5.496117199     8.032459190     5.772236151
 H        7.124887040     8.153485695     5.119264805
 H        6.195078953     6.681852728     4.867310298
 H        6.331012334     8.441750859     1.484845677
 H        6.670426747     6.909735362     2.316601079
 H        7.591599664     8.353925338     2.703275622
 H       -1.520171172    13.878141353    -1.328273380
 H       -2.095127590    13.799871710    -2.988711331
 H       -1.715334306    12.310542302    -2.134196960
 H       -5.534711960    12.490623202    -2.407679185
 H       -4.137663820    11.449187582    -2.742394116
 H       -4.333205816    12.973728637    -3.595004892
 H       -5.542806820    10.851554881     2.124674465
 H       -6.966358436    11.870910599     2.288487685
 H       -5.415138855    12.446073594     2.887942910
 H       -6.186397578    14.459455198    -0.280569302
 H       -5.789391399    14.615444138     1.441971763
 H       -7.320234890    13.909221548     0.943028944
 H       -0.820035101     0.879484113    -2.834582920
 H       -0.844831801    -0.654664056    -3.693406932
 H        0.680078448    -0.030391344    -3.078828991
 H       -0.252320269    -2.970707448    -0.813316491
 H        1.004704934    -2.339842345    -1.892714404
 H       -0.550459566    -2.841024922    -2.541350291
 H        0.187247039     0.657385536     2.957010778
 H       -0.932635353    -0.481379645     3.689207771
 H       -1.551148874     0.805971021     2.653858367
 H       -1.934629511    -2.404046758     0.651339013
 H       -2.790449147    -0.939294036     1.173630957
 H       -2.228699887    -2.109539042     2.358293778

