187   

Si        0.000000000     0.000000000     0.000000000
 C        1.865396058     0.000000000     0.000000000
 C       -0.682659563     1.709487347     0.000000000
 C        0.140415968     2.818551048    -0.218526879
 C       -0.391177260     4.108199198    -0.215663077
 C       -1.755964507     4.317775217    -0.002611903
 C       -2.580158729     3.205045540     0.213476231
 C       -2.051889904     1.917281024     0.216133848
 C       -2.356870160     5.647284774     0.009134115
 C       -1.683249129     6.794874995    -0.178995880
 C       -2.288960019     8.122356093    -0.166316261
 C       -1.470935921     9.239897734    -0.376466162
 C       -2.006035177    10.526340393    -0.372806739
 C       -3.372602474    10.724370096    -0.148321854
 C       -4.192447212     9.608640460     0.062220945
 C       -3.655777236     8.323009629     0.048291089
Si       -4.120461185    12.404120841    -0.134971406
 C       -5.482352724    12.502334368     1.082399688
 C       -5.523238137    11.774218904     2.206493955
 C       -6.601802151    11.836589340     3.193528943
 C       -6.520284390    11.017954676     4.329736087
 C       -7.512401254    11.036246002     5.295796460
 C       -8.659385433    11.837694931     5.120369526
 C       -8.743024263    12.658986474     3.984453914
 C       -7.709759298    12.676008750     3.054461863
 N       -9.648506835    11.826129302     6.132868841
 C      -10.113562218    10.490307046     6.561586922
 C      -10.758911420    12.779903311     5.964896359
 C      -10.888882918     9.699967668     5.489786412
 C      -10.007129978     8.644032909     4.791697223
 N      -10.450677314     8.277350544     3.427017711
 C      -10.248712657     9.357747596     2.506845775
 C       -8.939064731     9.526668498     2.027174186
 C       -8.659521533    10.548231789     1.133838088
 C       -9.675772544    11.399105192     0.672425518
 C      -10.977634949    11.210015285     1.139762438
 C      -11.269673034    10.196603750     2.048075477
 C      -11.803099411     7.692694356     3.401734555
 C       -9.322561760    12.462565039    -0.271624301
 C      -10.204088703    13.332696219    -0.779171932
Si       -9.828755314    14.678059827    -1.957290580
 C      -10.554097580    16.243519417    -1.320645844
 C      -10.700916364    16.427243983     0.060552598
 C      -11.248146006    17.606387127     0.558805739
 C      -11.647251888    18.633661282    -0.306664106
 C      -11.491697529    18.448948396    -1.683361047
 C      -10.950320688    17.266562126    -2.186916472
 C      -12.215476168    19.850852926     0.263514414
 C      -12.642186061    20.904240409    -0.453572779
 C      -13.210534677    22.121881948     0.115221746
 C      -13.367585053    22.310128572     1.490714583
 C      -13.916035901    23.491056821     1.990967862
 C      -14.326422984    24.508132269     1.123524373
 C      -14.171002832    24.321249981    -0.256807440
 C      -13.618037072    23.143997907    -0.752719594
Si      -15.052154679    26.072710795     1.767536735
 C      -15.501821053    25.929076659     3.572114619
 C      -13.794198025    27.486417892     1.561764372
 C      -16.597779494    26.482226783     0.734731377
 C       -7.948307282    14.941641776    -2.091223923
 C      -10.520971470    14.226996668    -3.665188294
 C       -2.829935830    13.739163102     0.260858371
 C       -4.849937448    12.739480516    -1.861071781
 C       -0.603487260    -0.928471806    -1.548521214
 C       -0.659682368    -0.899863555     1.542233749
 H        1.215084271     2.717345455    -0.393171681
 H        0.271579394     4.955007910    -0.384229826
 H       -3.646200116     3.346407138     0.382000392
 H       -2.743171892     1.088502793     0.393666026
 H       -3.436413573     5.658852206     0.187268951
 H       -0.604218119     6.784795987    -0.357751307
 H       -0.404492887     9.105168699    -0.546527570
 H       -1.319694120    11.359322589    -0.546469252
 H       -5.269718227     9.703602823     0.240460820
 H       -4.314219030     7.471134622     0.210210840
 H       -6.270734489    13.231518044     0.841301915
 H       -4.738370213    11.051188133     2.473615240
 H       -5.656023421    10.366381785     4.465082949
 H       -7.404834796    10.433353804     6.193599702
 H       -9.613706308    13.283834389     3.809888221
 H       -7.792498464    13.335587033     2.188079303
 H      -11.396719460    12.757036811     6.864809124
 H      -11.392600128    12.584869616     5.084985260
 H      -10.347630553    13.802832826     5.888002715
 H      -11.787467720     6.757336777     3.987689799
 H      -12.060224238     7.424795322     2.361843235
 H      -12.596214659     8.340386039     3.802750527
 H       -8.151628904     8.857147603     2.371403923
 H       -7.633959925    10.684684898     0.782450659
 H      -11.783070802    11.859194089     0.795606189
 H      -12.288996717    10.068672229     2.398873460
 H       -8.252526527    12.482447270    -0.520980643
 H      -11.273021512    13.279997579    -0.511569404
 H      -10.402652195    15.659618000     0.783125634
 H      -11.362482814    17.730820140     1.633997364
 H      -11.794188883    19.231160680    -2.377123347
 H      -10.855346267    17.177768382    -3.272463012
 H      -12.277538360    19.858861131     1.355614100
 H      -12.579830788    20.895816687    -1.545785834
 H      -13.060069442    21.532045432     2.186973711
 H      -14.012427239    23.580918837     3.076515391
 H      -14.474771529    25.081003185    -0.982570674
 H      -13.504068508    23.017886669    -1.827719914
 H       -9.234361979     9.909655766     6.919260173
 H      -10.755013376    10.637551213     7.460921106
 H      -11.768379274     9.212069256     5.944689340
 H      -11.296959209    10.399345845     4.732934576
 H       -8.956955642     9.013026243     4.711944454
 H       -9.969201057     7.710932706     5.394052939
 H        2.262926216    -1.029799172     0.042947758
 H        2.262622437     0.545190541     0.875399931
 H        2.274098289     0.476537976    -0.908315865
 H      -15.976631436    26.856625568     3.939046963
 H      -14.614750715    25.738508046     4.201291918
 H      -16.217010283    25.102924011     3.737576185
 H      -14.275540924    28.392967308     2.030577817
 C      -12.472335125    27.211555959     2.302049379
 C      -13.476552512    27.821902200     0.093592507
 H      -16.237168155    26.598870539    -0.328652114
 C      -17.638283603    25.347900731     0.756592001
 C      -17.281502469    27.797888847     1.147209418
 H       -7.503221836    13.919481600    -2.272923028
 C       -7.536326863    15.851797798    -3.260565979
 C       -7.354683884    15.508755791    -0.788419238
 H      -10.251997778    15.083943864    -4.348662467
 C       -9.896243710    12.944161824    -4.243087503
 C      -12.053284491    14.083947863    -3.663695952
 H       -2.026889258    13.643044838    -0.525978473
 C       -3.395899837    15.169050336     0.187540876
 C       -2.176776376    13.529691866     1.638667120
 H       -5.379517520    13.734314466    -1.785713351
 C       -3.780001044    12.854575470    -2.959852433
 C       -5.880700732    11.675707286    -2.279487260
 H       -0.091925975    -1.933884331    -1.517628271
 C       -2.123286001    -1.169552250    -1.575855155
 C       -0.192907996    -0.224135452    -2.854813247
 H       -1.784425050    -0.894387168     1.445264563
 C       -0.202132118    -2.365941866     1.640927857
 C       -0.297274826    -0.171860616     2.849418879
 H      -12.601686461    27.043710671     3.378973736
 H      -11.799282797    28.075538499     2.204775916
 H      -11.925976422    26.348866245     1.894214141
 H      -14.359772174    28.116523774    -0.487092963
 H      -12.983845736    26.994600325    -0.436330620
 H      -12.780790954    28.672417701     0.045262899
 H      -17.234572329    24.382072057     0.420407705
 H      -18.469711999    25.585682588     0.077807037
 H      -18.083760270    25.192827746     1.748159216
 H      -16.617342075    28.669960984     1.089751084
 H      -17.700937650    27.763012689     2.161395465
 H      -18.124832291    28.009354133     0.473699055
 H       -7.840259104    15.465897712    -4.241796783
 H       -6.440925060    15.946036678    -3.295662700
 H       -7.927476466    16.874454410    -3.167499478
 H       -7.545065689    14.877045130     0.090288371
 H       -7.726059776    16.517255037    -0.553951167
 H       -6.262738788    15.603696361    -0.876585150
 H       -8.805119034    13.000334908    -4.350122185
 H      -10.294299036    12.752486173    -5.249786975
 H      -10.127375652    12.049540469    -3.646856321
 H      -12.575561400    14.978051895    -3.295583606
 H      -12.402447851    13.227708430    -3.070013640
 H      -12.417101059    13.916557858    -4.687576917
 H       -3.795846629    15.428324206    -0.801131763
 H       -2.599737856    15.898697791     0.395568757
 H       -4.182905433    15.356552570     0.931713502
 H       -1.698671953    12.546910713     1.751647993
 H       -2.887218671    13.648045301     2.470037061
 H       -1.386419031    14.276178404     1.800311243
 H       -3.057416185    13.661403603    -2.783325566
 H       -4.255225687    13.075576755    -3.926681790
 H       -3.212042743    11.924739793    -3.105163809
 H       -6.706299944    11.556129968    -1.563974484
 H       -5.430903659    10.683579462    -2.430858856
 H       -6.339845047    11.951443192    -3.239694602
 H       -2.491196997    -1.735444482    -0.710754507
 H       -2.393192863    -1.759132586    -2.464281037
 H       -2.701842865    -0.237416181    -1.641605716
 H        0.891495556    -0.087530841    -2.955254451
 H       -0.664683450     0.761829210    -2.974786765
 H       -0.508313219    -0.823196371    -3.721064313
 H       -0.489160411    -2.970599412     0.770952029
 H       -0.666418293    -2.845768768     2.514847745
 H        0.882819259    -2.467902581     1.775924763
 H       -0.644491391     0.871007819     2.875576838
 H        0.781630269    -0.166532927     3.053316447
 H       -0.771331605    -0.674365446     3.704571629

