187   

Si        0.000000000     0.000000000     0.000000000
 C        1.865196935     0.000000000     0.000000000
 C       -0.688238090     1.707011003     0.000000000
 C        0.124895224     2.818447346    -0.242098471
 C       -0.413180176     4.105531550    -0.238423605
 C       -1.774674066     4.309708778    -0.000944628
 C       -2.588993396     3.194440409     0.238556794
 C       -2.054300520     1.909444039     0.240190383
 C       -2.383503383     5.635431744     0.012976378
 C       -1.722723351     6.786883485    -0.195760077
 C       -2.340675801     8.108799802    -0.179860944
 C       -1.538922014     9.233435887    -0.412762617
 C       -2.087529690    10.514292354    -0.406667058
 C       -3.451429194    10.699502111    -0.157227701
 C       -4.255138270     9.576458365     0.075938285
 C       -3.705284309     8.296619246     0.059666202
Si       -4.220319617    12.369956777    -0.138942974
 C       -5.549604649    12.457793207     1.115039744
 C       -5.546468898    11.736679887     2.244420276
 C       -6.596174383    11.788152849     3.262760476
 C       -6.467043649    10.977729455     4.400487248
 C       -7.429810817    10.985858355     5.395871981
 C       -8.594879123    11.766886809     5.250227055
 C       -8.726534436    12.579364792     4.112613391
 C       -7.722047436    12.607754726     3.151784335
 N       -9.552247738    11.744817342     6.292821152
 C       -9.984662553    10.403524293     6.738355953
 C      -10.680569804    12.682463520     6.157300364
 C      -10.773396324     9.594999866     5.690105627
 C       -9.893374117     8.547283738     4.977570928
 N      -10.367995470     8.159236531     3.629288260
 C      -10.210909551     9.234055595     2.694036768
 C       -8.917307229     9.424964935     2.180168630
 C       -8.681215226    10.442975039     1.270361417
 C       -9.726104503    11.267355804     0.825247611
 C      -11.011905323    11.055903234     1.326330175
 C      -11.260218454    10.046429563     2.251817578
 C      -11.709578083     7.549889614     3.647374981
 C       -9.418650369    12.328365509    -0.137473406
 C      -10.331057999    13.173965304    -0.631648069
Si      -10.016784847    14.515767674    -1.831560898
 C      -10.762621239    16.069489243    -1.189231425
 C      -10.914083155    16.247216052     0.190681741
 C      -11.477353923    17.418606383     0.694023008
 C      -11.886967354    18.441255338    -0.166415143
 C      -11.726574696    18.262978810    -1.546903460
 C      -11.170389757    17.091160921    -2.054253366
 C      -12.481153669    19.683706195     0.315956285
 C      -12.690293793    19.979749919     1.609996057
 C      -13.284400370    21.221974046     2.092780215
 C      -13.700462402    22.242345492     1.233793761
 C      -14.263775284    23.414261780     1.738674206
 C      -14.417325296    23.593492938     3.116929215
 C      -14.000136118    22.571592220     3.980700510
 C      -13.443530127    21.400822451     3.473628514
Si      -15.158895928    25.134289634     3.798981558
 C      -15.262043930    26.476110417     2.507273597
 C      -16.913425110    24.763333220     4.437278149
 C      -14.091608668    25.713048289     5.265179547
 C       -8.147174483    14.820776982    -2.017715432
 C      -10.745405205    14.034688972    -3.515933469
 C       -2.937976659    13.725154556     0.213022071
 C       -4.998245637    12.681246405    -1.848344496
 C       -0.604564912    -0.927261751    -1.549011015
 C       -0.657318209    -0.903721801     1.541232507
 H        1.196602958     2.721146889    -0.435959434
 H        0.241691414     4.954516039    -0.425616707
 H       -3.652337128     3.331628838     0.426414846
 H       -2.738021504     1.078580401     0.436493225
 H       -3.459664867     5.640725212     0.211845584
 H       -0.647510346     6.784882579    -0.395264814
 H       -0.474546947     9.109022576    -0.602566295
 H       -1.413712688    11.353387041    -0.598901777
 H       -5.329731980     9.660908071     0.274547970
 H       -4.351544211     7.439016793     0.239794966
 H       -6.355668583    13.173058042     0.891952563
 H       -4.742829220    11.027603813     2.492847710
 H       -5.588423427    10.341296070     4.513681589
 H       -7.285501709    10.390417320     6.293509652
 H       -9.612816894    13.187930045     3.960604557
 H       -7.841716227    13.260016263     2.284158139
 H      -11.284055681    12.659673356     7.080643975
 H      -11.343690632    12.470565692     5.303392068
 H      -10.286626788    13.710024786     6.055907547
 H      -11.662427119     6.624775699     4.247715297
 H      -11.986960253     7.260279904     2.618577535
 H      -12.504492381     8.189636507     4.057485761
 H       -8.107721122     8.775498743     2.511122143
 H       -7.667639388    10.597436146     0.892566701
 H      -11.839142700    11.684299084     0.995552578
 H      -12.267682955     9.901337295     2.629180244
 H       -8.355616857    12.369257751    -0.412723719
 H      -11.391948584    13.100027104    -0.337797954
 H      -10.606815532    15.482098068     0.912192200
 H      -11.592671460    17.532218336     1.770375670
 H      -12.039610137    19.047213299    -2.233506532
 H      -11.071849765    17.006148426    -3.139713555
 H      -12.759555433    20.392594177    -0.469344376
 H      -12.411428176    19.270795165     2.395051811
 H      -13.588371836    22.129555413     0.157021501
 H      -14.570900015    24.176293962     1.017033624
 H      -14.094773269    22.656372382     5.066995988
 H      -13.126928099    20.617886446     4.160087152
 H       -9.086474745     9.839549979     7.075517254
 H      -10.605252593    10.543684329     7.653252442
 H      -11.634536383     9.097358891     6.169077067
 H      -11.209529987    10.283254771     4.938695294
 H       -8.852189574     8.932839276     4.865312462
 H       -9.823100642     7.620956851     5.587567681
 H        2.262550927    -1.030074505     0.037416128
 H        2.262131876     0.540568360     0.878453267
 H        2.274334465     0.481568270    -0.905438889
 H      -15.670705168    27.409224532     2.934714984
 H      -15.912439711    26.184132137     1.664316867
 H      -14.262422505    26.709122805     2.097459953
 H      -17.325894819    25.753494872     4.787546853
 C      -17.840794717    24.223699623     3.333010478
 C      -16.944017875    23.787090397     5.626828974
 H      -14.120295643    24.873177302     6.018955484
 C      -12.621303190    25.940402335     4.869853624
 C      -14.628429920    26.981212918     5.952329641
 H       -7.683371934    13.807199181    -2.200505522
 C       -7.787264821    15.727345468    -3.206926301
 C       -7.533145275    15.415861481    -0.737021189
 H      -10.510127295    14.889218970    -4.214658635
 C      -10.113410601    12.757268055    -4.097809278
 C      -12.274353007    13.864746192    -3.472106936
 H       -2.156082615    13.635267766    -0.595468028
 C       -3.526643269    15.146287357     0.146834786
 C       -2.243942701    13.534106157     1.573352157
 H       -5.545582184    13.665770878    -1.765434315
 C       -3.957752828    12.810253844    -2.973543802
 C       -6.017755830    11.595168221    -2.236227515
 H       -0.096884839    -1.934546968    -1.516989759
 C       -2.125323555    -1.162174201    -1.577290639
 C       -0.190198538    -0.225090941    -2.855197423
 H       -1.781780796    -0.907323413     1.441112625
 C       -0.188830288    -2.366202564     1.642224765
 C       -0.303931080    -0.172009809     2.848783221
 H      -17.938824346    24.901132250     2.475014135
 H      -18.856410242    24.082252084     3.729733824
 H      -17.521785675    23.244145873     2.948635442
 H      -16.371932636    24.138941472     6.494630267
 H      -16.578745536    22.784037784     5.365063492
 H      -17.978470277    23.653688426     5.975847645
 H      -12.150524080    25.053528747     4.421866543
 H      -12.025248913    26.187463958     5.760001224
 H      -12.489102438    26.774645717     4.168224851
 H      -15.654445623    26.872007161     6.326759253
 H      -14.602256755    27.864870148     5.300984388
 H      -14.007092825    27.225826925     6.826268669
 H       -8.105254485    15.322367884    -4.175922321
 H       -6.695790681    15.848654960    -3.270182857
 H       -8.201714414    16.740905237    -3.115390861
 H       -7.689234039    14.791893926     0.153917372
 H       -7.918980532    16.419643307    -0.505681608
 H       -6.445823522    15.531107748    -0.853330553
 H       -9.026714707    12.831638828    -4.234645155
 H      -10.534718891    12.548234233    -5.091511471
 H      -10.312465529    11.864857786    -3.486864636
 H      -12.802468014    14.754215066    -3.101058685
 H      -12.592535430    13.009975285    -2.859217942
 H      -12.661987021    13.678392648    -4.483895347
 H       -3.963969417    15.391353183    -0.829536745
 H       -2.734435644    15.888880399     0.321412955
 H       -4.290486764    15.328984400     0.915970236
 H       -1.748303741    12.559252546     1.678989658
 H       -2.932692213    13.647280136     2.423495620
 H       -1.460646946    14.293216168     1.708515088
 H       -3.245710967    13.630734073    -2.818500042
 H       -4.460506877    13.018041556    -3.929340596
 H       -3.376881204    11.890066633    -3.128780899
 H       -6.821515069    11.460928367    -1.498800037
 H       -5.551785705    10.612003910    -2.396841122
 H       -6.507776914    11.858358024    -3.184633391
 H       -2.494858941    -1.732143540    -0.715570549
 H       -2.398066281    -1.744993071    -2.469286048
 H       -2.700443582    -0.227439706    -1.636698229
 H        0.894588819    -0.090236291    -2.953674593
 H       -0.660359235     0.761397731    -2.977160059
 H       -0.504756851    -0.824687396    -3.721395977
 H       -0.465631463    -2.972927071     0.770405437
 H       -0.654595101    -2.849964365     2.513156618
 H        0.896083247    -2.459418445     1.783782890
 H       -0.659784789     0.867989212     2.873500734
 H        0.774428840    -0.157559484     3.055142787
 H       -0.775674360    -0.677949643     3.703185105

