187   

Si        0.000000000     0.000000000     0.000000000
 C        1.865218939     0.000000000     0.000000000
 C       -0.673369690     1.712779877     0.000000000
 C        0.144268550     2.815230218     0.267072295
 C       -0.383935994     4.106019487     0.262645199
 C       -1.734762978     4.324310834    -0.021458625
 C       -2.552201374     3.218818308    -0.291133702
 C       -2.029500095     1.929361505    -0.276377734
 C       -2.331673136     5.654556624    -0.037826859
 C       -1.661146926     6.791128876     0.213356064
 C       -2.252730829     8.123341342     0.198358225
 C       -3.601836938     8.344890130    -0.085070823
 C       -4.124384899     9.637877413    -0.088032856
 C       -3.318764425    10.735221968     0.229344921
 C       -1.967886553    10.511113888     0.530267056
 C       -1.443797800     9.222731191     0.512407487
Si       -3.984560062    12.447992394     0.232183101
 C       -3.940276683    13.181493189     1.907301444
 C       -3.053497988    12.902964400     2.871143173
 C       -3.080757628    13.533372801     4.195170684
 C       -2.105634964    13.173466602     5.138291382
 C       -2.094988223    13.745210650     6.401734351
 C       -3.067523172    14.697068776     6.744754905
 C       -4.049049529    15.055986749     5.816092632
 C       -4.055802584    14.466578569     4.555744575
 N       -2.979412983    15.236050567     8.074592193
 C       -2.111088660    16.435849912     8.105923466
 C       -4.286650358    15.446392654     8.721793765
 C       -2.734702108    17.712748564     7.506013973
 C       -1.674826590    18.674984820     6.935822608
 N       -1.389732049    18.515190009     5.494396136
 C       -0.705955058    17.324513207     5.140877820
 C        0.526477159    17.061894788     5.772926139
 C        1.235751650    15.913275557     5.464487496
 C        0.759961333    15.003867112     4.507971972
 C       -0.442059267    15.288656546     3.857209490
 C       -1.157648248    16.445722895     4.145057391
 C       -2.536755545    18.875574100     4.643620153
 C        1.553313202    13.807583362     4.224256359
 C        1.217899007    12.860444840     3.338002250
Si        2.227386810    11.373060081     3.001098502
 C        1.216645101     9.838333237     3.073977320
 C       -0.075389916     9.832066857     3.607772505
 C       -0.819124395     8.652098564     3.649982014
 C       -0.272109048     7.448300758     3.198890289
 C        1.029381387     7.454327738     2.677065607
 C        1.763110287     8.634450251     2.608962546
 C       -1.000818307     6.185712383     3.218661767
 C       -2.249805929     6.017568763     3.684313205
 C       -2.952025421     4.737888957     3.689739923
 C       -2.372629066     3.562920129     3.202678330
 C       -3.073898303     2.359172289     3.224149118
 C       -4.373106645     2.301581291     3.739615556
 C       -4.958440155     3.477801196     4.223499863
 C       -4.258341191     4.681820426     4.191274875
Si       -5.273939266     0.696628649     3.754354912
 C       -4.093572293    -0.718709038     4.049883058
 C       -6.620224534     0.721304184     5.097708541
 C       -6.116940514     0.463395434     2.063375991
 C        2.930356509    11.539802508     1.239235159
 C        3.657865843    11.237403407     4.245695257
 C       -2.969146497    13.549383619    -0.950825899
 C       -5.798332137    12.555272068    -0.342923612
 C       -0.586391979    -0.975966424    -1.525451415
 C       -0.683093587    -0.829413727     1.572530768
 H        1.209882623     2.707564239     0.485010607
 H        0.272793516     4.948878182     0.470073015
 H       -3.608665430     3.368024109    -0.506907565
 H       -2.715176502     1.103866459    -0.490800836
 H       -3.400651394     5.675880999    -0.267066868
 H       -0.592861765     6.769937024     0.453257240
 H       -4.257098151     7.506575529    -0.313559002
 H       -5.184766987     9.745079868    -0.333164904
 H       -1.286815217    11.324178177     0.803747926
 H       -0.392804047     9.065893133     0.760730386
 H       -4.734263986    13.929219000     2.070989846
 H       -2.251782924    12.161821160     2.752223642
 H       -1.338994349    12.440853943     4.879124548
 H       -1.338419515    13.466656661     7.135162159
 H       -4.814674526    15.780507546     6.075850221
 H       -4.833693080    14.748562352     3.846591818
 H       -4.112839142    15.685048412     9.785248619
 H       -4.859092330    14.502828337     8.683428291
 H       -4.902494807    16.243965632     8.282520952
 H       -2.903649529    19.874029898     4.936118924
 H       -3.379086215    18.167163358     4.692366853
 H       -2.196831901    18.949349127     3.594545187
 H        0.922386112    17.767937213     6.498501698
 H        2.181426825    15.719654662     5.970887912
 H       -0.830002258    14.605245256     3.097582691
 H       -2.091421271    16.628155648     3.621033472
 H        2.469376000    13.755945658     4.829097128
 H        0.299228636    12.937618335     2.735117754
 H       -0.546763583    10.740568717     3.995395433
 H       -1.834471516     8.676258917     4.043641554
 H        1.474235816     6.526430965     2.323308747
 H        2.767629623     8.578235463     2.180813103
 H       -0.445706230     5.332622183     2.813271198
 H       -2.817478945     6.860770632     4.086613783
 H       -1.364647245     3.578760693     2.786718450
 H       -2.569445066     1.476244232     2.817645347
 H       -5.971275582     3.494973091     4.633171167
 H       -4.733202840     5.587032881     4.564767936
 H       -1.829387416    16.607941437     9.167710772
 H       -1.167896320    16.178989950     7.567254768
 H       -3.452292050    17.439561601     6.708764175
 H       -3.332263294    18.231913821     8.276264885
 H       -2.005014200    19.729016142     7.086520755
 H       -0.719674125    18.577544860     7.498038640
 H        2.264688344    -1.029509071    -0.018377005
 H        2.268544015     0.493070476     0.902382406
 H        2.268051092     0.528875669    -0.881966728
 H       -4.628796834    -1.683223604     4.089612677
 H       -3.562726979    -0.591381259     5.010919751
 H       -3.330084648    -0.791207285     3.254384257
 H       -7.293691992     1.591946106     4.846967225
 C       -7.488681414    -0.549740879     5.119933899
 C       -6.046496586     0.957163967     6.506907558
 H       -6.646253114    -0.530646659     2.115536312
 C       -7.164456743     1.549488731     1.758574194
 C       -5.109666033     0.410081737     0.900368188
 H        3.548948703    10.613338722     1.063035071
 C        1.829385508    11.588231133     0.164673880
 C        3.847155562    12.763981121     1.072773034
 H        4.176267676    12.239944650     4.232850013
 C        3.159942799    10.971325319     5.678474515
 C        4.700123136    10.166195277     3.879423491
 H       -3.061789779    13.062364322    -1.964548757
 C       -3.528891502    14.980957579    -1.053444684
 C       -1.473078963    13.639074675    -0.602303170
 H       -6.046242267    13.657996110    -0.314282881
 C       -6.027015482    12.067452212    -1.783511053
 C       -6.781707851    11.841083869     0.601262963
 H        0.047436021    -1.910418227    -1.536162964
 C       -2.061352701    -1.415392033    -1.493152138
 C       -0.329778025    -0.211981076    -2.837585494
 H       -1.806681974    -0.736859933     1.495396651
 C       -0.335821942    -2.323810251     1.686398445
 C       -0.235016022    -0.115758248     2.860763872
 H       -8.000609213    -0.742759581     4.168453997
 H       -8.278820234    -0.450962354     5.878485976
 H       -6.921543905    -1.452067743     5.383863973
 H       -5.441269408     1.871735490     6.584220884
 H       -5.427750163     0.122037245     6.861589248
 H       -6.863902228     1.066745674     7.233647055
 H       -7.979627156     1.586504224     2.492105194
 H       -7.637685339     1.354876112     0.785684684
 H       -6.728062497     2.556888251     1.692845944
 H       -4.371827440    -0.396743885     1.000737523
 H       -4.560797052     1.356525714     0.776652323
 H       -5.637060154     0.230051453    -0.046826412
 H        1.158175174    10.717765651     0.189194547
 H        2.281922887    11.594241750    -0.837212946
 H        1.211263747    12.494836799     0.228453144
 H        4.710712281    12.757849557     1.750040480
 H        3.318680873    13.717427002     1.217243865
 H        4.258233432    12.791861894     0.053572863
 H        2.437067783    11.715944934     6.040067482
 H        4.004140877    10.992388893     6.381741779
 H        2.693094967     9.981717508     5.788994126
 H        5.156060495    10.318809850     2.893052782
 H        4.293364927     9.145820656     3.909847823
 H        5.527058230    10.184745926     4.604640339
 H       -4.571968834    15.022857221    -1.390452802
 H       -2.952480298    15.556919271    -1.792140492
 H       -3.456296776    15.535604090    -0.107313801
 H       -0.950310682    12.678934527    -0.712925650
 H       -1.286628068    14.020214224     0.411642255
 H       -0.967805628    14.334615603    -1.288064833
 H       -5.439033125    12.622252254    -2.526765466
 H       -7.081611141    12.203040795    -2.064039320
 H       -5.808201070    11.000216674    -1.923217294
 H       -6.711399860    12.184341549     1.642950117
 H       -6.661134442    10.749428649     0.611158605
 H       -7.816169516    12.032568128     0.282546688
 H       -2.331210541    -1.980911335    -0.592336236
 H       -2.271088362    -2.078474877    -2.345214403
 H       -2.760858803    -0.573629773    -1.585539930
 H        0.723380476     0.060401544    -2.986189005
 H       -0.923099482     0.710492638    -2.917586189
 H       -0.609584854    -0.834805090    -3.699025406
 H       -0.681664312    -2.920015622     0.832411231
 H       -0.816365341    -2.754263079     2.577143681
 H        0.740845150    -2.505518886     1.801696661
 H       -0.444524417     0.964090026     2.861747526
 H        0.835614979    -0.241564711     3.068084713
 H       -0.768329298    -0.532912730     3.727728955

