187   

Si        0.000000000     0.000000000     0.000000000
 C        1.865273546     0.000000000     0.000000000
 C       -0.672502511     1.713858833     0.000000000
 C        0.120578596     2.796907628    -0.392512127
 C       -0.395962580     4.092412563    -0.389870726
 C       -1.716460874     4.334521479    -0.002270612
 C       -2.511547524     3.247678043     0.385440853
 C       -1.998450842     1.953492935     0.385096551
 C       -2.298920361     5.672308232     0.015973258
 C       -1.646658070     6.795309999    -0.329644167
 C       -2.228155112     8.133523104    -0.311757587
 C       -3.549237246     8.375791413     0.076007404
 C       -4.064554417     9.671106008     0.078285301
 C       -3.263855627    10.754491242    -0.299469490
 C       -1.940083264    10.515856837    -0.688583151
 C       -1.431652713     9.219291556    -0.698283914
Si       -3.937226327    12.466467218    -0.298834644
 C       -2.561140077    13.667726986    -0.248502953
 C       -2.403255980    14.719317145    -1.062815616
 C       -1.280753176    15.655694781    -0.982704611
 C       -1.218784375    16.722501124    -1.889327564
 C       -0.176821652    17.635832930    -1.854579139
 C        0.882604592    17.478723044    -0.935481017
 C        0.822265504    16.403738631    -0.026740537
 C       -0.254323422    15.527523438    -0.042256010
 N        1.941298170    18.403648957    -0.897674677
 C        2.238798035    19.147604825    -2.133763029
 C        3.158406799    17.990112770    -0.177260624
 C        2.720887027    18.246212994    -3.281661497
 C        2.937849729    19.073341614    -4.558934424
 N        3.440756694    18.273915362    -5.689410967
 C        4.716094783    17.695039307    -5.557061456
 C        5.686204180    18.280521320    -4.715736256
 C        6.942081957    17.708737647    -4.586663034
 C        7.301649849    16.571571303    -5.322900906
 C        6.350939959    16.011552842    -6.180788899
 C        5.081711123    16.559925217    -6.307036927
 C        2.394015840    17.437383612    -6.302485154
 C        8.641164490    16.008414716    -5.148134759
 C        9.092819442    14.926858971    -5.797437752
Si       10.764611072    14.218458501    -5.583726549
 C       12.010980744    15.498378071    -5.145479688
 C       11.866491017    16.806805232    -5.625189993
 C       12.802902587    17.784764205    -5.300741217
 C       13.912808527    17.478045945    -4.502427050
 C       14.059116443    16.169667737    -4.033253906
 C       13.120664313    15.188928144    -4.352307764
 C       14.866876996    18.536877990    -4.189482621
 C       15.966461221    18.377129198    -3.433592129
 C       16.920879538    19.435524991    -3.120296827
 C       16.776469599    20.744092161    -3.588298318
 C       17.713614280    21.725126702    -3.264004701
 C       18.821162572    21.415682351    -2.468359568
 C       18.968761383    20.103545027    -1.998494397
 C       18.028987091    19.128118163    -2.319200275
Si       20.066573207    22.699242545    -2.031727413
 C       19.885016931    24.220824832    -3.095299916
 C       19.847719521    23.196051451    -0.207227656
 C       21.802180558    21.948045477    -2.248692263
 C       10.696225982    12.878768911    -4.234571970
 C       11.280276158    13.405806137    -7.225040075
 C       -5.013096361    12.713473362    -1.847199195
 C       -5.021141384    12.720706373     1.244424832
 C       -0.623402076    -0.913332744    -1.549067464
 C       -0.653488224    -0.911606621     1.538256292
 H        1.160600089     2.670534846    -0.705754605
 H        0.243487782     4.918409276    -0.695977809
 H       -3.542956601     3.413953294     0.690527597
 H       -2.666317990     1.145767170     0.697216785
 H       -3.342597785     5.712430607     0.341110952
 H       -0.602927434     6.754759887    -0.655051676
 H       -4.189089254     7.549599161     0.379876096
 H       -5.105309454     9.798787590     0.388294752
 H       -1.270953856    11.326201078    -0.996381629
 H       -0.401696301     9.051388224    -1.007479648
 H       -1.834342875    13.458716220     0.554744421
 H       -3.110987534    14.961112067    -1.866197261
 H       -2.010031696    16.848247825    -2.629069363
 H       -0.183428028    18.469655312    -2.549871956
 H        1.609227958    16.251833587     0.705304703
 H       -0.283432254    14.714688999     0.685863343
 H        3.937376914    18.765392394    -0.268412209
 H        3.576946709    17.036030659    -0.538598761
 H        2.926853086    17.895815124     0.899284990
 H        1.426373797    17.965927287    -6.289168494
 H        2.262525608    16.464212213    -5.800806202
 H        2.647411337    17.262530258    -7.363945093
 H        5.455841999    19.180191471    -4.153204616
 H        7.666674527    18.164075473    -3.909826752
 H        6.603659853    15.126846718    -6.767402095
 H        4.376164946    16.094047177    -6.987327147
 H        9.254907809    16.568195887    -4.428016541
 H        8.453407536    14.379339388    -6.506498760
 H       11.022809428    17.102158512    -6.258429905
 H       12.670207343    18.797584432    -5.676569990
 H       14.912732334    15.904495925    -3.412382624
 H       13.289775014    14.183821328    -3.956507607
 H       14.626986537    19.511829484    -4.623881893
 H       16.206608433    17.401959336    -2.999877867
 H       15.925608102    21.009974964    -4.212845272
 H       17.546358062    22.730947104    -3.659081483
 H       19.814777623    19.803369999    -1.373718201
 H       18.160113368    18.114920705    -1.944015511
 H        1.327477873    19.714597779    -2.432325475
 H        3.005597160    19.920740061    -1.898286618
 H        3.657250910    17.728094520    -2.996780025
 H        1.987506502    17.437578595    -3.467795227
 H        1.986299651    19.559693745    -4.873603292
 H        3.650778377    19.908823656    -4.372119144
 H        2.263371336    -1.029426768     0.045830391
 H        2.259962962     0.548072720     0.874983473
 H        2.275911457     0.474880116    -0.908083599
 H       20.660075039    24.970091219    -2.853871986
 H       18.901684855    24.703073505    -2.955925721
 H       19.988949008    23.969597176    -4.166575017
 H       20.602129938    24.014265724    -0.021221052
 C       18.446534998    23.763197300     0.085824845
 C       20.132904201    22.051318429     0.781364425
 H       21.851842636    21.073760074    -1.536253179
 C       22.037479561    21.409253983    -3.671407129
 C       22.940883712    22.917375332    -1.884679667
 H       11.728815282    12.426505586    -4.189437739
 C       10.367358816    13.462024066    -2.848613262
 C        9.698047038    11.750743621    -4.550907403
 H       10.497507809    12.624131925    -7.445848518
 C       11.295606253    14.410102174    -8.391443396
 C       12.648007290    12.705334227    -7.149826452
 H       -5.311156391    13.801912795    -1.846871174
 C       -4.242440345    12.426461356    -3.149025514
 C       -6.299539038    11.868529667    -1.839093635
 H       -5.868186920    11.980697413     1.154709547
 C       -4.265613547    12.421039775     2.551414747
 C       -5.628101098    14.132202402     1.326938970
 H       -0.149352450    -1.936504237    -1.513615165
 C       -2.151556247    -1.095923554    -1.577180041
 C       -0.183933283    -0.228500687    -2.856145313
 H       -1.778028201    -0.919052413     1.439847660
 C       -0.180595874    -2.373305389     1.632095356
 C       -0.299911483    -0.185161938     2.848657335
 H       18.193979706    24.639766228    -0.524484884
 H       18.384077303    24.090456253     1.133599368
 H       17.647887729    23.020205208    -0.052264522
 H       21.150659901    21.649145535     0.700582185
 H       19.429099928    21.213329726     0.678602879
 H       20.027839820    22.413053927     1.814702447
 H       21.289592191    20.666055325    -3.983097030
 H       23.012748151    20.905013436    -3.727253308
 H       22.054462175    22.200157941    -4.432926732
 H       22.880037741    23.293146484    -0.855149934
 H       22.994949129    23.785344524    -2.555120649
 H       23.910402839    22.404843052    -1.967601235
 H       11.073766431    14.237905643    -2.522173110
 H       10.405251084    12.670649113    -2.086991884
 H        9.356922127    13.892898284    -2.795930346
 H        9.910250518    11.232176191    -5.494456341
 H        8.656457194    12.099924926    -4.586419878
 H        9.737201778    10.983293689    -3.764415013
 H       10.331281630    14.912917476    -8.547217684
 H       11.528830024    13.892103214    -9.332417941
 H       12.061296832    15.190442549    -8.272948627
 H       12.686366335    11.902999746    -6.402131347
 H       13.473905157    13.399873614    -6.938754430
 H       12.883641443    12.235606086    -8.115815188
 H       -3.324814846    13.020598751    -3.257261026
 H       -4.869548770    12.664233632    -4.019526669
 H       -3.961364251    11.368253885    -3.252030972
 H       -6.960444978    12.089150948    -0.991263646
 H       -6.101882261    10.787287988    -1.840229053
 H       -6.887641963    12.071359839    -2.745971498
 H       -3.837713095    11.409125023     2.584954092
 H       -4.951451158    12.492234242     3.407574558
 H       -3.452065364    13.132659399     2.748582009
 H       -6.254369467    14.388340588     0.462793510
 H       -4.867453759    14.919421762     1.431350829
 H       -6.276549026    14.212322558     2.211051623
 H       -2.537782540    -1.666906315    -0.723408377
 H       -2.446494945    -1.654478896    -2.477463168
 H       -2.695127722    -0.141305434    -1.618417835
 H        0.904995214    -0.132041786    -2.953598550
 H       -0.619918859     0.773233642    -2.980649397
 H       -0.518291601    -0.818629514    -3.721454356
 H       -0.458420859    -2.977323762     0.758742188
 H       -0.642512786    -2.861789959     2.502441298
 H        0.904963783    -2.464203282     1.770170074
 H       -0.654341932     0.855193298     2.877649464
 H        0.778627647    -0.172347788     3.054675962
 H       -0.771591068    -0.694192767     3.701219863

