187   

Si        0.000000000     0.000000000     0.000000000
 C        1.865135816     0.000000000     0.000000000
 C       -0.678501243     1.710027282     0.000000000
 C        0.121415631     2.808919585     0.327541639
 C       -0.408806848     4.099101017     0.322690039
 C       -1.746382065     4.319225238    -0.014411893
 C       -2.548090816     3.215714932    -0.337142774
 C       -2.025123031     1.926482988    -0.322869358
 C       -2.346239813     5.648334600    -0.033872734
 C       -1.695541354     6.785631217     0.263335191
 C       -2.302946833     8.111378088     0.241479194
 C       -1.512518467     9.218702789     0.573155626
 C       -2.049050220    10.503776533     0.566055980
 C       -3.378605732    10.712212218     0.181174455
 C       -4.165777810     9.609143472    -0.167988359
 C       -3.633007034     8.321993194    -0.132792882
Si       -4.101787487    12.400705751     0.166219782
 C       -5.454924300    12.564488339    -1.051581558
 C       -5.547565996    11.877355485    -2.198148324
 C       -6.648434336    12.034189555    -3.153004031
 C       -6.648899959    11.263745087    -4.326465079
 C       -7.671934419    11.383278508    -5.253716741
 C       -8.741020757    12.267465909    -5.017043462
 C       -8.746003483    13.038635752    -3.848429227
 C       -7.701253883    12.925523904    -2.936710765
 N       -9.761155511    12.342233551    -6.012213390
 C      -10.559043498    11.106083905    -6.124238412
 C      -10.593843728    13.557084756    -5.971553186
 C      -11.443454171    10.809969309    -4.897386492
 C      -11.969577016     9.362609820    -4.909203679
 N      -11.234713985     8.435232159    -4.027518779
 C       -9.903577112     8.132519926    -4.378806638
 C       -9.566108776     7.951420633    -5.736753284
 C       -8.263266077     7.653367225    -6.102163232
 C       -7.278357570     7.412355450    -5.134998848
 C       -7.624222035     7.548394969    -3.787528578
 C       -8.909237521     7.912863123    -3.407780177
 C      -11.494613944     8.695304454    -2.600357161
 C       -5.915947283     7.101348576    -5.570512517
 C       -4.907567075     6.856416566    -4.724775733
Si       -3.180547364     6.460856967    -5.172189244
 C       -2.138546505     7.599557506    -4.172303068
 C       -2.572931384     8.921028359    -4.000503959
 C       -1.815625053     9.815411476    -3.251915431
 C       -0.605577466     9.414890595    -2.669420446
 C       -0.175114521     8.097733337    -2.844496130
 C       -0.936423938     7.194853979    -3.586823651
 C        0.146554344    10.394291152    -1.895383484
 C        1.313271305    10.164041488    -1.270568861
 C        2.037882873    11.172031004    -0.503647048
 C        1.570181971    12.480553024    -0.353774940
 C        2.291421900    13.415810079     0.387181047
 C        3.493785137    13.058249217     1.005101570
 C        3.963326483    11.745806124     0.859720966
 C        3.244363815    10.816293372     0.113265880
Si        4.456746719    14.281437755     1.986168632
 C        3.453848498    15.813676265     2.343203407
 C        4.989014791    13.449616465     3.613528891
 C        6.018463216    14.784193645     1.021472927
 C       -2.800239747     4.641826565    -4.790074069
 C       -2.844836983     6.776091786    -7.016784344
 C       -4.802457235    12.756562243     1.898538077
 C       -2.759403913    13.691932683    -0.228304158
 C       -0.655797468    -0.887762221    -1.552475504
 C       -0.620782848    -0.932721087     1.537717416
 H        1.176077531     2.698493915     0.593098598
 H        0.234219875     4.938043101     0.582828614
 H       -3.596164259     3.365002494    -0.592218635
 H       -2.700423982     1.104374066    -0.575987931
 H       -3.403314372     5.670531935    -0.315682564
 H       -0.638313381     6.769571153     0.543016874
 H       -0.467612075     9.078492876     0.846894244
 H       -1.387134201    11.325618723     0.854033248
 H       -5.210798406     9.715077772    -0.478147010
 H       -4.261982288     7.478810777    -0.412183041
 H       -6.215252970    13.311226441    -0.774080467
 H       -4.803811999    11.129761368    -2.509760173
 H       -5.836739155    10.559147303    -4.515104600
 H       -7.656128681    10.791887571    -6.168093165
 H       -9.560289610    13.725598930    -3.640795699
 H       -7.720798297    13.540317680    -2.036548381
 H      -11.211222731    13.590080115    -6.886006213
 H       -9.937954571    14.445462790    -5.989602212
 H      -11.260892130    13.628497250    -5.099647418
 H      -12.564225025     8.915446817    -2.447954646
 H      -10.907114187     9.532159401    -2.187640437
 H      -11.270454358     7.780411075    -2.021851818
 H      -10.327018814     8.049334700    -6.506088617
 H       -8.013675208     7.569991623    -7.160257585
 H       -6.873486094     7.381468839    -3.012291324
 H       -9.124774836     8.037291984    -2.351325308
 H       -5.799118552     7.084828088    -6.660688142
 H       -5.068447639     6.872967711    -3.632140970
 H       -3.511234244     9.286142986    -4.431849880
 H       -2.172776629    10.835402779    -3.116507731
 H        0.758051986     7.762963241    -2.396450161
 H       -0.557669249     6.173738952    -3.682078471
 H       -0.320531836    11.385259517    -1.844007247
 H        1.788142018     9.181278254    -1.312174476
 H        0.632555476    12.784209101    -0.818336251
 H        1.877040698    14.424640167     0.465303294
 H        4.895817399    11.409805517     1.321642746
 H        3.626203483     9.802684611     0.010157625
 H      -11.182501155    11.185746464    -7.041609313
 H       -9.847702305    10.264914337    -6.298210976
 H      -10.863637746    10.998290103    -3.971764717
 H      -12.289432847    11.518640461    -4.863411821
 H      -13.038372436     9.345314697    -4.592805067
 H      -11.968189480     8.948112150    -5.942023069
 H        2.263620240    -1.029569372    -0.037392732
 H        2.274857552     0.482282196     0.904723736
 H        2.260126743     0.541088262    -0.878972397
 H        4.022475907    16.524555904     2.969036156
 H        2.525766900    15.561417616     2.887451968
 H        3.168921935    16.341204826     1.416130459
 H        5.635162431    12.573276494     3.315212034
 C        5.825872293    14.363337806     4.526348504
 C        3.792770568    12.901042653     4.412526272
 H        6.526807091    15.569538721     1.652481202
 C        7.012344473    13.628213449     0.809326885
 C        5.690171358    15.409432732    -0.346802527
 H       -1.705846938     4.498529321    -5.028634300
 C       -3.014982146     4.290159953    -3.309670149
 C       -3.606542932     3.657678592    -5.657131531
 H       -3.586928636     6.140321837    -7.580561119
 C       -3.068559334     8.245245469    -7.420171102
 C       -1.429500532     6.354817480    -7.451229081
 H       -5.230428425    13.799078483     1.857819861
 C       -5.938410601    11.788581222     2.275507747
 C       -3.728344165    12.722399864     2.999653080
 H       -1.922025765    13.504869238     0.505209364
 C       -2.197354586    13.538735217    -1.652354247
 C       -3.236170877    15.143059322    -0.037818142
 H       -1.777583470    -0.930558699    -1.433134661
 C       -0.350791909    -0.113430760    -2.848075474
 C       -0.142487077    -2.331136960    -1.696923071
 H       -0.140501943    -1.952684401     1.491127362
 C       -0.185137265    -0.259113627     2.852044618
 C       -2.147593825    -1.126107480     1.565660417
 H        6.737526305    14.740916757     4.045473311
 H        6.155675641    13.805235548     5.414775861
 H        5.261581269    15.228185411     4.899610580
 H        3.174670820    12.195600460     3.838851025
 H        3.129404379    13.690882318     4.788995758
 H        4.149393708    12.349762129     5.294289259
 H        7.371527242    13.184999333     1.746664328
 H        7.905294877    13.993590241     0.281194702
 H        6.600914393    12.819768078     0.188727748
 H        5.047335509    16.296414992    -0.278639300
 H        5.207276258    14.700713523    -1.034975591
 H        6.614842225    15.737811276    -0.842828571
 H       -2.443998527     4.931460366    -2.620131635
 H       -2.674847633     3.262464149    -3.111602012
 H       -4.070198919     4.332328463    -3.008882432
 H       -3.436400093     3.783912763    -6.733628898
 H       -4.689538410     3.720995617    -5.481494574
 H       -3.316430846     2.624015110    -5.419150209
 H       -4.076116045     8.616384254    -7.187712853
 H       -2.938591858     8.362020421    -8.505030948
 H       -2.347216537     8.929222398    -6.949376474
 H       -1.223102282     5.288907752    -7.290438469
 H       -0.638686690     6.928734096    -6.947267885
 H       -1.297453623     6.533348591    -8.528073526
 H       -6.773785351    11.797137650     1.562410777
 H       -6.362105871    12.065467352     3.251070001
 H       -5.596769519    10.747766829     2.373500171
 H       -2.924366410    13.454088647     2.847367507
 H       -3.262449657    11.732279039     3.112066481
 H       -4.179684363    12.959772965     3.973598318
 H       -1.793951101    12.536219473    -1.854267131
 H       -1.372775824    14.247471470    -1.813003204
 H       -2.944139667    13.755026481    -2.430436600
 H       -3.574543503    15.361048208     0.982971075
 H       -4.046519015    15.422132685    -0.724871074
 H       -2.409725202    15.839712700    -0.240380771
 H       -0.739394676     0.915209595    -2.840334990
 H       -0.821504164    -0.614040959    -3.706055522
 H        0.722602298    -0.059128322    -3.072725527
 H       -0.385141292    -2.967365790    -0.836024796
 H        0.942355182    -2.385660416    -1.857873043
 H       -0.606806393    -2.808682145    -2.572021053
 H        0.903191299    -0.156567551     2.950257223
 H       -0.515558562    -0.860697498     3.711007660
 H       -0.627316287     0.738500902     2.987345979
 H       -2.532069324    -1.684279363     0.702757191
 H       -2.697192279    -0.175988608     1.625705794
 H       -2.436590016    -1.702866343     2.456413360

