187   

Si        0.000000000     0.000000000     0.000000000
 C        1.865420508     0.000000000     0.000000000
 C       -0.682538047     1.709172273     0.000000000
 C        0.131605797     2.815092318    -0.263246466
 C       -0.400418374     4.104591214    -0.259666483
 C       -1.756846155     4.317302310    -0.000793672
 C       -2.572149662     3.207383070     0.259272642
 C       -2.043655558     1.919727976     0.260091895
 C       -2.357981742     5.646595092     0.013624356
 C       -1.692691852     6.791684268    -0.214822621
 C       -2.298158444     8.119322326    -0.199388467
 C       -1.487468301     9.233425662    -0.454920181
 C       -2.022046111    10.519153393    -0.450514022
 C       -3.386346143    10.718989117    -0.205850520
 C       -4.198244781     9.608374698     0.047295998
 C       -3.657009383     8.323493906     0.055687971
Si       -4.104322498    12.413955803    -0.197519534
 C       -5.919814588    12.318854869    -0.391386756
 C       -6.829350791    12.931091311     0.378182871
 C       -8.276184548    12.821727337     0.179585736
 C       -9.136435665    13.508540495     1.048977296
 C      -10.510665399    13.434090347     0.898994186
 C      -11.086261112    12.623044078    -0.099845055
 C      -10.224252544    11.933172627    -0.970131082
 C       -8.844852353    12.055264723    -0.839547745
 N      -12.496135705    12.569743766    -0.226015893
 C      -13.234794583    12.453495113     1.054067771
 C      -13.009503572    11.667133946    -1.270660616
 C      -14.735483920    12.761839355     0.908252091
 C      -15.019439241    14.170260774     0.348270148
 N      -14.821546112    15.293155029     1.283976838
 C      -13.481128931    15.728395682     1.434511734
 C      -12.807139783    16.165416349     0.274608583
 C      -11.497303571    16.602491005     0.355086196
 C      -10.834924785    16.674867930     1.592173183
 C      -11.517452849    16.274845801     2.741530133
 C      -12.828828292    15.811947634     2.672947931
 C      -15.608890996    15.174402136     2.520701591
 C       -9.449180089    17.145359349     1.612226491
 C       -8.708168297    17.260432936     2.721685569
Si       -6.977514351    17.844743723     2.773169505
 C       -5.971832927    16.649197637     3.744674287
 C       -6.427236895    15.338956284     3.926962315
 C       -5.673878531    14.425002558     4.660890985
 C       -4.448959551    14.797004078     5.223040096
 C       -3.993201038    16.108144564     5.034827765
 C       -4.743965674    17.024557979     4.302502127
 C       -3.630043169    13.870651098     5.998030516
 C       -3.959972890    12.591672459     6.246140919
 C       -3.151643256    11.655266626     7.018583448
 C       -1.925992339    12.007586263     7.588786502
 C       -1.187087841    11.077404950     8.320051386
 C       -1.653126069     9.769269617     8.483728786
 C       -2.879872060     9.412223410     7.907367829
 C       -3.619154275    10.344624192     7.185529691
Si       -0.692384017     8.527658295     9.445145880
 C        1.044176054     9.117640267     9.785763450
 C       -1.562479077     8.193749990    11.104588953
 C       -0.653972166     6.908940071     8.443744772
 C       -6.257335137    17.945881358     1.015698613
 C       -6.908686025    19.563771087     3.576742165
 C       -3.658635517    13.242460088     1.455080188
 C       -3.364504955    13.409914226    -1.638389125
 C       -0.608406651    -0.926387448    -1.547765856
 C       -0.656734659    -0.902154548     1.542490714
 H        1.199533316     2.711587350    -0.473863287
 H        0.255467142     4.949062789    -0.463390698
 H       -3.631424885     3.351047535     0.463698448
 H       -2.728082763     1.093450074     0.471899881
 H       -3.430089480     5.660653745     0.231095472
 H       -0.620703899     6.779436217    -0.431859858
 H       -0.426872002     9.095592257    -0.655040530
 H       -1.340568716    11.351207480    -0.647312478
 H       -5.269853962     9.707038026     0.249506010
 H       -4.307482189     7.475606379     0.261232472
 H       -6.229503422    11.695254994    -1.246281008
 H       -6.557035968    13.564895241     1.234156368
 H       -8.722698555    14.132750572     1.843609400
 H      -11.150346777    14.019559124     1.559554077
 H      -10.615789773    11.296293417    -1.755998981
 H       -8.202797435    11.521353935    -1.541490414
 H      -14.098711166    11.800875293    -1.376449262
 H      -12.805461735    10.602363049    -1.075790640
 H      -12.567737147    11.947524456    -2.244230474
 H      -16.661225958    14.970885022     2.258747557
 H      -15.588554430    16.142518149     3.053377373
 H      -15.262498280    14.387797504     3.209119493
 H      -13.316246605    16.138427067    -0.686779562
 H      -10.977474682    16.903036024    -0.555357050
 H      -11.025210168    16.323042842     3.713477112
 H      -13.328187731    15.502533491     3.584948527
 H       -9.067288617    17.394734502     0.612240888
 H       -9.121620640    17.013972385     3.712752599
 H       -7.378149505    14.990834531     3.509850177
 H       -6.050796460    13.411666885     4.792193383
 H       -3.042363534    16.417088960     5.464144166
 H       -4.339129075    18.033462770     4.188313042
 H       -2.696403281    14.291048999     6.381160227
 H       -4.896971666    12.174675679     5.862529995
 H       -1.537531949    13.017102341     7.468936024
 H       -0.237448792    11.411841272     8.746470824
 H       -3.291685426     8.403126997     7.999553438
 H       -4.568890312    10.048393207     6.743674144
 H      -13.106571805    11.439874485     1.496017599
 H      -12.801039441    13.180295974     1.782450380
 H      -15.220755506    12.012775187     0.254425847
 H      -15.216772740    12.637794334     1.897073113
 H      -14.382262708    14.336617298    -0.553835552
 H      -16.077158613    14.224646788     0.001767964
 H        2.262964204    -1.029651279     0.044669150
 H        2.261804981     0.546934020     0.874731127
 H        2.274476537     0.475372030    -0.908710705
 H        1.628417664     8.347564238    10.320443049
 H        1.052184291    10.031168578    10.405531997
 H        1.576952741     9.343340440     8.844031084
 H       -0.890957238     7.477933058    11.661306134
 C       -1.714491988     9.466914385    11.957292629
 C       -2.944398036     7.532331379    10.957013076
 H       -1.730768152     6.586816252     8.336887260
 C       -0.079479959     7.103999423     7.029127816
 C        0.110638753     5.771684524     9.144133286
 H       -6.935327080    18.642839850     0.443418863
 C       -4.832044133    18.525462767     0.973265797
 C       -6.254407131    16.581917437     0.303606038
 H       -5.825528731    19.879066996     3.548616134
 C       -7.730041441    20.618290869     2.814296643
 C       -7.358511640    19.544585170     5.048670529
 H       -4.327497240    14.147539368     1.550905287
 C       -3.944596309    12.304818901     2.641668420
 C       -2.201480992    13.726350593     1.546994736
 H       -2.251751749    13.439890596    -1.451522452
 C       -3.598842346    12.733450325    -3.001262815
 C       -3.872950683    14.860094595    -1.705651387
 H       -0.104373134    -1.935401750    -1.515940095
 C       -2.130220852    -1.155319853    -1.573615371
 C       -0.193389195    -0.226232202    -2.854846509
 H       -1.781365217    -0.902689952     1.444574335
 C       -0.191962039    -2.365875530     1.642848794
 C       -0.299016162    -0.171214611     2.849378215
 H       -0.759687833     9.960700951    12.179123331
 H       -2.164379118     9.217997320    12.929066333
 H       -2.375662611    10.213750505    11.494668988
 H       -2.913374659     6.570829254    10.429040172
 H       -3.673001524     8.176134570    10.444581279
 H       -3.367834675     7.322449008    11.950064285
 H       -0.616672787     7.864048233     6.443112472
 H       -0.156813669     6.167411279     6.457994942
 H        0.983571374     7.378175878     7.030325137
 H       -0.287551685     5.526206132    10.136920559
 H        1.182549232     5.981872400     9.255885868
 H        0.039458546     4.849992169     8.548133427
 H       -4.760601563    19.541170225     1.381449050
 H       -4.484738561    18.590670100    -0.068234410
 H       -4.099303366    17.898827885     1.501428353
 H       -7.236329282    16.087625204     0.275221666
 H       -5.546321600    15.871395427     0.754506734
 H       -5.946432402    16.704069737    -0.744543008
 H       -7.407551304    20.752866843     1.773773276
 H       -7.624231234    21.599984136     3.297959308
 H       -8.806838993    20.396157840     2.802984563
 H       -6.786877353    18.841105986     5.670171631
 H       -8.423751522    19.303221308     5.167424644
 H       -7.215716140    20.537211033     5.499305269
 H       -4.994182271    11.989206252     2.706545573
 H       -3.714510033    12.819619815     3.587558682
 H       -3.323448652    11.397749680     2.635382188
 H       -1.936840808    14.462300232     0.778144831
 H       -1.473690808    12.905261845     1.497086596
 H       -2.036222122    14.221968886     2.515826231
 H       -3.217800693    11.703621132    -3.047890379
 H       -3.076355282    13.288772723    -3.792827459
 H       -4.658483374    12.708845196    -3.289935857
 H       -3.672632431    15.433159861    -0.790133839
 H       -4.950980276    14.923018231    -1.911767832
 H       -3.370950023    15.398425223    -2.521640495
 H       -2.500904361    -1.722369168    -0.710476314
 H       -2.406510317    -1.738307867    -2.464326703
 H       -2.701443523    -0.218149965    -1.633274373
 H        0.891799942    -0.095997613    -2.955093867
 H       -0.659580844     0.762276553    -2.976044173
 H       -0.511991692    -0.824564452    -3.720382916
 H       -0.472753190    -2.972023313     0.771907958
 H       -0.656707816    -2.848051786     2.515157563
 H        0.893061381    -2.461973165     1.781466199
 H       -0.650526363     0.870317434     2.873810204
 H        0.779664546    -0.160952876     3.054252592
 H       -0.771804485    -0.674767418     3.704516461

