187   

Si        0.000000000     0.000000000     0.000000000
 C        1.865345841     0.000000000     0.000000000
 C       -0.669701052     1.715069715     0.000000000
 C        0.109105279     2.786299678     0.450164890
 C       -0.400968307     4.084236034     0.448940890
 C       -1.700906716     4.340850467     0.005010290
 C       -2.481946697     3.265936975    -0.439814605
 C       -1.975397071     1.969042220    -0.440260834
 C       -2.275530635     5.682035438    -0.013850502
 C       -1.634205635     6.793923098     0.384087997
 C       -2.206263168     8.136034350     0.366310641
 C       -3.505658016     8.396438802    -0.076871284
 C       -4.012010893     9.696047548    -0.076476934
 C       -3.233320370    10.761844535     0.384603846
 C       -1.930689534    10.503369880     0.832892604
 C       -1.423608821     9.207154363     0.818208726
Si       -3.865885081    12.489376598     0.400763412
 C       -3.250767664    13.417642542     1.850958187
 C       -2.957348895    12.854252716     3.030724664
 C       -2.464764181    13.591118501     4.195184069
 C       -2.192841013    12.887345603     5.376626359
 C       -1.724803084    13.536954535     6.507568394
 C       -1.456795653    14.922416973     6.478403333
 C       -1.726673821    15.628684692     5.290041837
 C       -2.242782025    14.970833035     4.181344859
 N       -0.981596236    15.580748459     7.627462786
 C       -0.209924735    14.780463447     8.594514117
 C       -0.423738559    16.930979211     7.436625645
 C        1.113138865    14.249266536     8.020020080
 C        1.801061511    13.314890840     9.028166726
 N        3.114998036    12.832632782     8.567227109
 C        4.124309862    13.795417672     8.380640713
 C        4.132423813    14.977341214     9.152089302
 C        5.124328330    15.927882083     8.971591594
 C        6.171524769    15.720984483     8.062856567
 C        6.180378914    14.535741441     7.322583233
 C        5.182570713    13.582171855     7.476163970
 C        3.003709870    11.780102528     7.542326417
 C        7.192395014    16.758743992     7.912367561
 C        8.236903765    16.672888942     7.077467420
Si        9.509341709    17.972907946     6.893768531
 C        8.822264213    19.647892732     7.220407060
 C        7.505867882    19.939129481     6.837677276
 C        6.964427272    21.199488601     7.074484305
 C        7.726319025    22.203695463     7.686889308
 C        9.041323513    21.912754458     8.059950932
 C        9.585309116    20.649611365     7.828149763
 C        7.114005947    23.508540105     7.913674538
 C        7.729664964    24.553382046     8.492831807
 C        7.115942967    25.857785396     8.718959435
 C        5.801065294    26.147265884     8.345443188
 C        5.253776130    27.408509350     8.580669720
 C        6.013763835    28.411193320     9.191082292
 C        7.333028615    28.123422149     9.566742158
 C        7.874593725    26.862056198     9.335452119
Si        5.305528802    30.080618647     9.508167195
 C        3.713641400    30.339440947     8.570836313
 C        4.959498940    30.278640465    11.369398898
 C        6.592653778    31.384245631     8.990830369
 C       10.943383167    17.600970665     8.087536753
 C       10.170101470    17.919854289     5.110680584
 C       -3.271733435    13.372252366    -1.176085810
 C       -5.768178716    12.500089857     0.425116116
 C       -0.650788103    -0.912929811    -1.538697078
 C       -0.628536064    -0.911732959     1.547655465
 H        1.132967158     2.648327112     0.808662635
 H        0.227461256     4.900755083     0.799878273
 H       -3.497340292     3.443555878    -0.789103874
 H       -2.632170734     1.171042530    -0.797533302
 H       -3.302635030     5.734868992    -0.386394967
 H       -0.606730639     6.740058361     0.756004235
 H       -4.134901245     7.582464500    -0.431595078
 H       -5.032116990     9.838204123    -0.443284324
 H       -1.277018469    11.299908529     1.204811175
 H       -0.408367363     9.025993946     1.165761834
 H       -3.151113582    14.502087218     1.694564006
 H       -3.056982205    11.774593871     3.213608309
 H       -2.364173184    11.810493587     5.414196500
 H       -1.560268165    12.963805794     7.415055693
 H       -1.545716162    16.696799316     5.226344144
 H       -2.459492081    15.546189794     3.279944349
 H       -0.042082916    17.323205154     8.394199147
 H       -1.230272557    17.613004518     7.111612627
 H        0.394434708    16.965982818     6.698331126
 H        2.155070599    11.114390776     7.772740039
 H        3.914547633    11.154719507     7.565702509
 H        2.865902046    12.174614325     6.522025576
 H        3.355809540    15.157423586     9.889439138
 H        5.095174793    16.845829952     9.560660825
 H        6.983556007    14.348112617     6.608256248
 H        5.229669822    12.676066631     6.880880686
 H        7.015363493    17.634528503     8.553241474
 H        8.397835799    15.781026806     6.453505981
 H        6.865291477    19.194633777     6.352576626
 H        5.938207144    21.405301297     6.776465453
 H        9.654962404    22.674762330     8.536747685
 H       10.619279146    20.482381305     8.141894569
 H        6.078860655    23.593600719     7.570158095
 H        8.764863251    24.468946860     8.836234976
 H        5.189579427    25.385742847     7.865085344
 H        4.219893732    27.575062997     8.265980361
 H        7.974398218    28.867884768    10.047088826
 H        8.900458412    26.657035419     9.635686741
 H       -0.018644624    15.409592735     9.493609836
 H       -0.851839610    13.942027244     8.949742521
 H        0.930019657    13.715710515     7.066920103
 H        1.783411072    15.090962889     7.758370805
 H        1.936184817    13.823870075    10.009878495
 H        1.159233789    12.429083166     9.238402240
 H        2.263609558    -1.028764458    -0.057274119
 H        2.276886705     0.465273529     0.912528453
 H        2.259076325     0.557635678    -0.869406496
 H        3.317112611    31.357651552     8.733195707
 H        2.932691162    29.624915927     8.884484584
 H        3.869441649    30.213782599     7.483894624
 H        4.482761810    31.294886990    11.484220588
 C        3.970705362    29.224791988    11.900887997
 C        6.228539243    30.246701784    12.239792816
 H        7.500325938    31.195275709     9.634933291
 C        7.021086793    31.237621571     7.519530884
 C        6.133323351    32.832222737     9.237706022
 H       11.715953715    18.403484864     7.909037986
 C       10.508222131    17.672165111     9.562256590
 C       11.608351701    16.237001464     7.829696242
 H       10.588557703    16.882470629     4.963921102
 C        9.057476405    18.137697805     4.069517142
 C       11.299945709    18.932266856     4.854587053
 H       -3.690563194    14.418511220    -1.124398143
 C       -1.737398415    13.474738326    -1.244928798
 C       -3.787435904    12.713790230    -2.467405070
 H       -6.096117142    11.947094179    -0.501920300
 C       -6.341101749    11.766029269     1.650748223
 C       -6.367641672    13.916655455     0.368254267
 H       -1.775731012    -0.916260063    -1.445124060
 C       -0.288753433    -0.191550999    -2.849558404
 C       -0.183267399    -2.376764960    -1.626862772
 H       -0.157275418    -1.936243820     1.513836283
 C       -0.190993168    -0.227743714     2.855816671
 C       -2.157374877    -1.089599314     1.570751789
 H        3.001988381    29.235584890    11.385069568
 H        3.755016620    29.412282250    12.962596117
 H        4.366710061    28.200618145    11.843922819
 H        6.956385764    31.025308135    11.978741092
 H        6.744349693    29.276652636    12.206163279
 H        5.964530847    30.415756608    13.294028018
 H        7.414224963    30.239254174     7.279544438
 H        7.827358134    31.948456140     7.288758768
 H        6.208818232    31.451578575     6.812325880
 H        5.876800529    33.034618972    10.285601865
 H        5.271437612    33.119215776     8.620841024
 H        6.941957063    33.531409483     8.979089690
 H       10.071535816    18.640285253     9.843854410
 H       11.375805013    17.522401931    10.220053250
 H        9.780014185    16.892496109     9.829964318
 H       12.019637901    16.136652730     6.817289946
 H       10.928206699    15.390882090     8.001524121
 H       12.453411308    16.095167040     8.518873952
 H        8.235000335    17.414099423     4.151625125
 H        9.464377135    18.028130791     3.054267423
 H        8.619613605    19.145182088     4.117087273
 H       12.174713267    18.781851557     5.500034680
 H       10.974131414    19.975951717     4.970544083
 H       11.662015005    18.838467815     3.820479709
 H       -1.294654117    13.985616551    -0.378966175
 H       -1.437499858    14.052704130    -2.130568608
 H       -1.248069748    12.494509977    -1.338622466
 H       -4.882419829    12.688339666    -2.536544167
 H       -3.420044101    11.686065770    -2.600447777
 H       -3.437905726    13.278829873    -3.343678558
 H       -6.004179389    10.723585401     1.734267561
 H       -7.437987255    11.731538041     1.592009776
 H       -6.098640551    12.267087317     2.599497998
 H       -6.069327257    14.481044662    -0.524322376
 H       -6.115094845    14.523084832     1.249456346
 H       -7.465395017    13.858778176     0.340906490
 H       -0.638602414     0.850189144    -2.883107496
 H       -0.758591657    -0.700992066    -3.702869374
 H        0.790752593    -0.183778009    -3.050907242
 H       -0.470073126    -2.978346618    -0.754699782
 H        0.902811980    -2.472722487    -1.757058688
 H       -0.640922869    -2.864562281    -2.499856820
 H        0.897899548    -0.134261419     2.956451504
 H       -0.529470974    -0.817140498     3.720122854
 H       -0.624913541     0.775003731     2.979056929
 H       -2.542613495    -1.658438427     0.715057575
 H       -2.698195835    -0.133349080     1.610663122
 H       -2.457096659    -1.648241565     2.469389035

