187   

Si        0.000000000     0.000000000     0.000000000
 C        1.865352656     0.000000000     0.000000000
 C       -0.685203353     1.708207109     0.000000000
 C        0.130563690     2.818403266    -0.238964379
 C       -0.405154086     4.106459104    -0.235355110
 C       -1.766730379     4.313151233    -0.000166944
 C       -2.583561035     3.199100938     0.236342568
 C       -2.051394171     1.913042202     0.237310764
 C       -2.372962428     5.640159171     0.013540780
 C       -1.708936464     6.790046059    -0.193323648
 C       -2.322203897     8.114240880    -0.178114679
 C       -1.514079131     9.235408739    -0.409365250
 C       -2.056616502    10.517991371    -0.404098396
 C       -3.425698829    10.707395465    -0.179482931
 C       -4.235356103     9.589852067     0.050142949
 C       -3.686610246     8.308235741     0.055027640
Si       -4.160516774    12.393943067    -0.168840636
 C       -5.949068906    12.281052597    -0.523221125
 C       -6.931626714    12.850880927     0.186752016
 C       -8.353390607    12.730478687    -0.138855730
 C       -9.294976148    13.372254843     0.678545349
 C      -10.651626349    13.289225635     0.413464181
 C      -11.116196541    12.591621403    -0.724403533
 C      -10.170552173    11.947905314    -1.547288510
 C       -8.818244441    12.003867015    -1.238719912
 N      -12.489574015    12.515951148    -0.979636206
 C      -13.333451939    13.659825844    -0.602077901
 C      -12.923425072    11.804041388    -2.187759664
 C      -12.866478810    15.033493332    -1.119053920
 C      -13.154217126    15.293272253    -2.608328739
 N      -14.575985617    15.365706895    -3.002918609
 C      -15.163664637    14.120241550    -3.342856324
 C      -14.630787921    13.442772697    -4.458576735
 C      -15.156024256    12.221906735    -4.847302585
 C      -16.241057829    11.652290505    -4.162827767
 C      -16.784122657    12.342674395    -3.076923244
 C      -16.266973315    13.569952896    -2.674842094
 C      -15.383862956    16.249404173    -2.149262651
 C      -16.757350563    10.358636960    -4.616227015
 C      -17.785272612     9.720300568    -4.042977969
Si      -18.470462536     8.107658558    -4.565305484
 C      -18.610584115     7.002273400    -3.102630314
 C      -17.810402162     7.224183610    -1.976563192
 C      -17.910429865     6.390723929    -0.863365492
 C      -18.800495538     5.313203634    -0.855243275
 C      -19.595124780     5.089535535    -1.987527072
 C      -19.501834979     5.922434349    -3.099584476
 C      -18.938367048     4.415574748     0.286959521
 C      -18.238665052     4.519079004     1.429632491
 C      -18.375880571     3.621974164     2.572240991
 C      -19.268405853     2.547162293     2.584203586
 C      -19.367044506     1.714224421     3.698688180
 C      -18.567754969     1.935000922     4.824667481
 C      -17.670693043     3.011875859     4.814767368
 C      -17.578921272     3.844895271     3.703341559
Si      -18.686005047     0.844744618     6.303415490
 C      -19.637742019    -0.715736044     5.931058760
 C      -16.920406777     0.418185944     6.873015698
 C      -19.566449341     1.778207005     7.709399704
 C      -20.193111238     8.398291869    -5.318037513
 C      -17.365653620     7.275466367    -5.869608811
 C       -3.836392421    13.200928113     1.522154526
 C       -3.342019763    13.455892198    -1.519502695
 C       -0.605107347    -0.927335210    -1.548709829
 C       -0.657778906    -0.902418331     1.541764787
 H        1.202532949     2.719289861    -0.430330415
 H        0.251771026     4.954290798    -0.420441253
 H       -3.646958906     3.338179648     0.422546260
 H       -2.737177076     1.083293221     0.431012699
 H       -3.449243292     5.647903129     0.211172512
 H       -0.633316593     6.784905240    -0.390971815
 H       -0.449496840     9.105697384    -0.593254243
 H       -1.377604517    11.355397191    -0.585318677
 H       -5.311500190     9.680243250     0.233316805
 H       -4.335972884     7.454456185     0.240251840
 H       -6.173475576    11.682750167    -1.422353992
 H       -6.743143744    13.458081329     1.081657946
 H       -8.957205163    13.936375859     1.548512191
 H      -11.358132377    13.760906515     1.089379536
 H      -10.484987147    11.399043819    -2.428790526
 H       -8.108461347    11.481965439    -1.883165704
 H      -14.028125164    11.762995104    -2.229712678
 H      -12.569291920    10.757599881    -2.142478875
 H      -12.566999055    12.264570171    -3.123752972
 H      -14.892182349    17.236586151    -2.093243528
 H      -15.540255861    15.878763524    -1.124401209
 H      -16.370125474    16.404293218    -2.622858432
 H      -13.812540864    13.892724798    -5.017894822
 H      -14.729483747    11.705770655    -5.708001282
 H      -17.631675320    11.922874359    -2.532632315
 H      -16.717520550    14.085250571    -1.831759325
 H      -16.214243501     9.955447368    -5.480848152
 H      -18.316463118    10.157323874    -3.180239915
 H      -17.091407990     8.048813384    -1.927817277
 H      -17.281781129     6.586402046     0.003659153
 H      -20.294184890     4.255564439    -2.001085932
 H      -20.147060984     5.700390273    -3.953788977
 H      -19.675510766     3.618158477     0.155860781
 H      -17.500849791     5.316452134     1.560355338
 H      -19.898507937     2.350782517     1.718730364
 H      -20.084470176     0.890515089     3.649464392
 H      -17.020126083     3.232275049     5.665977878
 H      -16.877236060     4.676995270     3.714855360
 H      -14.377079148    13.460268363    -0.936710034
 H      -13.377378934    13.683213542     0.514115809
 H      -13.330266069    15.825316012    -0.501341453
 H      -11.773146160    15.140800084    -0.953724846
 H      -12.699182493    16.270775565    -2.900234764
 H      -12.642662443    14.520004591    -3.224170039
 H        2.262855445    -1.029918848     0.039025445
 H        2.262084159     0.542009284     0.877643250
 H        2.274190794     0.480248191    -0.906241440
 H      -19.663431932    -1.385458871     6.809209128
 H      -19.170560630    -1.275788486     5.100685548
 H      -20.682556870    -0.500183880     5.646852491
 H      -16.430610222     1.403264073     7.126407686
 C      -16.878127135    -0.466366611     8.131705126
 C      -16.088647040    -0.249022432     5.762712249
 H      -19.654801166     1.038747300     8.557107101
 C      -18.784916319     3.000599573     8.223156563
 C      -20.986117532     2.228943628     7.319296054
 H      -20.563242963     7.384070261    -5.646695220
 C      -21.196277004     8.961370404    -4.295684480
 C      -20.163617617     9.316908875    -6.552020244
 H      -17.236475896     8.032411392    -6.696577828
 C      -15.972053072     6.921239729    -5.319053607
 C      -17.992321819     6.008475037    -6.478514219
 H       -4.389367560    14.184423939     1.507836638
 C       -4.383394553    12.358373638     2.688971188
 C       -2.348017824    13.495872177     1.781424271
 H       -2.249178748    13.520025792    -1.246480867
 C       -3.446107784    12.816381815    -2.915617636
 C       -3.902422276    14.887789776    -1.579982641
 H       -0.096834755    -1.934293638    -1.517181238
 C       -2.125755778    -1.163108965    -1.576084572
 C       -0.192097973    -0.224620905    -2.855064036
 H       -1.782475869    -0.900706865     1.444198399
 C       -0.195677800    -2.367102953     1.640281192
 C       -0.298140329    -0.173540162     2.849177837
 H      -17.394281615    -0.022586318     8.992818548
 H      -15.835632760    -0.622277584     8.445624935
 H      -17.301053252    -1.466206401     7.967003248
 H      -16.027743374     0.352994976     4.844680953
 H      -16.464471741    -1.241917569     5.482418657
 H      -15.053469698    -0.394890840     6.102986546
 H      -17.786128336     2.751315170     8.603237763
 H      -19.324198411     3.465303762     9.061561975
 H      -18.670985132     3.784943846     7.461604033
 H      -21.640025611     1.400360922     7.018546297
 H      -20.990828489     2.968683324     6.505790525
 H      -21.477170743     2.711663608     8.176459594
 H      -21.302798476     8.334770816    -3.398842646
 H      -22.197354024     9.024370136    -4.745774968
 H      -20.944187969     9.977565069    -3.962931689
 H      -19.533701213     8.934190579    -7.365347358
 H      -19.823706834    10.336297729    -6.319386413
 H      -21.175658847     9.418800375    -6.969555460
 H      -15.433498651     7.779842353    -4.895598867
 H      -15.337888833     6.524775853    -6.124477686
 H      -16.006982900     6.141622551    -4.543969127
 H      -18.948046724     6.194614421    -6.984756869
 H      -18.152633056     5.211528419    -5.738510656
 H      -17.320470255     5.586030182    -7.240025922
 H       -5.455807584    12.134816721     2.605253046
 H       -4.252900052    12.897209823     3.637810458
 H       -3.857246798    11.399589886     2.804519332
 H       -1.904344753    14.178370118     1.045561604
 H       -1.730826241    12.586830688     1.812907502
 H       -2.226383734    13.980897314     2.760896156
 H       -3.027566491    11.801042974    -2.961931627
 H       -2.883466176    13.413746701    -3.646916365
 H       -4.478763039    12.766895833    -3.287405232
 H       -3.780848615    15.442614979    -0.640800392
 H       -4.968013180    14.918942832    -1.849062991
 H       -3.373736337    15.467000555    -2.350328710
 H       -2.495000294    -1.730637281    -0.712604121
 H       -2.398359567    -1.748638963    -2.466295041
 H       -2.701178134    -0.228711404    -1.637997431
 H        0.892574726    -0.089537037    -2.954442102
 H       -0.662506115     0.761877732    -2.976081057
 H       -0.507376765    -0.823823867    -3.721235816
 H       -0.478579607    -2.971984567     0.769143832
 H       -0.660467771    -2.849161489     2.512685677
 H        0.889280432    -2.465485510     1.777739619
 H       -0.648374670     0.868379636     2.875255532
 H        0.780639738    -0.165024125     3.053549055
 H       -0.771104643    -0.677443272     3.704107759

