187   

Si        0.000000000     0.000000000     0.000000000
 C        1.865483410     0.000000000     0.000000000
 C       -0.677090354     1.711813662     0.000000000
 C        0.143165176     2.812835206     0.265512297
 C       -0.381276772     4.105237916     0.262711755
 C       -1.736124431     4.326179971     0.002283023
 C       -2.557519961     3.221529113    -0.260158738
 C       -2.036445691     1.930629514    -0.261792882
 C       -2.327628939     5.660093845    -0.010925366
 C       -1.651419121     6.798165723     0.220430625
 C       -2.240300405     8.133150876     0.207848207
 C       -3.595235186     8.357124240    -0.052352260
 C       -4.115773734     9.650708296    -0.054254864
 C       -3.286593666    10.749879153     0.191024685
 C       -1.927986345    10.529574847     0.450573191
 C       -1.414072012     9.235520338     0.463491556
Si       -3.951652723    12.465555183     0.193419711
 C       -2.606881564    13.629985307    -0.223362366
 C       -2.286021178    14.736240127     0.460164102
 C       -1.197959565    15.642105397     0.088652703
 C       -0.955821488    16.772089342     0.883429750
 C        0.060805237    17.660947945     0.576445717
 C        0.856874884    17.465992493    -0.573649282
 C        0.614424131    16.332199660    -1.372675101
 C       -0.386653804    15.432447744    -1.029218865
 N        1.882738426    18.375120084    -0.870973068
 C        1.683658133    19.786626456    -0.503885141
 C        2.636107406    18.164692402    -2.114928746
 C        0.402821473    20.431949379    -1.059186445
 C        0.522327372    20.727139369    -2.564102339
 N       -0.733076198    21.146183724    -3.200176803
 C       -1.737116043    20.179457355    -3.407218559
 C       -1.539760659    18.811045851    -3.142460115
 C       -2.561546537    17.897752501    -3.363300133
 C       -3.788280645    18.300098521    -3.906059275
 C       -3.971352089    19.656411087    -4.196749524
 C       -2.970154500    20.585121239    -3.957130330
 C       -1.200664582    22.470538097    -2.751485400
 C       -4.840295477    17.304583423    -4.123207720
 C       -6.042232288    17.598714594    -4.636457618
Si       -7.411918109    16.431844974    -4.943118797
 C       -8.040150403    16.637806803    -6.659957770
 C       -7.246111294    17.247802774    -7.636556139
 C       -7.721356860    17.404383393    -8.938111659
 C       -8.992985528    16.946827756    -9.293896467
 C       -9.783833699    16.330307140    -8.314906492
 C       -9.314131773    16.175681338    -7.013333576
 C       -9.531841356    17.088717773   -10.642492472
 C       -8.881135904    17.658219900   -11.671213840
 C       -9.421237059    17.799438868   -13.019343461
 C      -10.694301150    17.344871901   -13.372654601
 C      -11.171703807    17.500269605   -14.673940763
 C      -10.381499085    18.109318718   -15.653720688
 C       -9.103690920    18.565505440   -15.302126020
 C       -8.632219676    18.413967354   -14.001129450
Si      -10.996432738    18.322133228   -17.375643051
 C      -12.545166609    17.327517686   -17.679159345
 C      -11.380105558    20.159804758   -17.691002687
 C       -9.619525435    17.776847929   -18.571572905
 C       -6.838976683    14.635645686    -4.707817569
 C       -8.814595015    16.817473865    -3.714994710
 C       -5.335304496    12.619860787    -1.100037368
 C       -4.685051953    12.838511804     1.907988205
 C       -0.657582090    -0.900434495    -1.542787749
 C       -0.611663545    -0.925153178     1.546933532
 H        1.210313772     2.703133471     0.477486950
 H        0.279561428     4.945462180     0.468289093
 H       -3.615628187     3.371543323    -0.466055285
 H       -2.725207266     1.108499892    -0.475699901
 H       -3.399170194     5.683590477    -0.229128898
 H       -0.579589369     6.773726392     0.438906303
 H       -4.258319177     7.518144402    -0.254214490
 H       -5.183862614     9.762996903    -0.258605815
 H       -1.234745777    11.353570307     0.650369599
 H       -0.356755595     9.082174265     0.671549150
 H       -2.051905855    13.343036531    -1.132283915
 H       -2.823609275    15.054096522     1.362983610
 H       -1.573196617    16.954666757     1.763788136
 H        0.241409716    18.509721405     1.228981627
 H        1.204228289    16.141868063    -2.263186415
 H       -0.545846541    14.555720464    -1.659628476
 H        3.414263739    18.937585528    -2.226185509
 H        2.007897783    18.169262533    -3.022150929
 H        3.159486608    17.191231767    -2.055652618
 H       -0.351138740    23.096490636    -2.435584330
 H       -1.919937192    22.414609340    -1.918160673
 H       -1.682722155    22.987735459    -3.601203578
 H       -0.599698599    18.450414828    -2.731751187
 H       -2.395672575    16.848602309    -3.110735650
 H       -4.916021480    19.998823151    -4.622399592
 H       -3.142258067    21.628084111    -4.204347027
 H       -4.547352073    16.289235127    -3.826548846
 H       -6.299291991    18.635404858    -4.914610791
 H       -6.240151037    17.620710449    -7.416562572
 H       -7.087182224    17.886656682    -9.679835238
 H      -10.776813667    15.967054069    -8.571957042
 H       -9.975089763    15.688149452    -6.291633950
 H      -10.540761818    16.687570865   -10.776084029
 H       -7.871982088    18.059149261   -11.537925087
 H      -11.327920686    16.863382878   -12.630080531
 H      -12.175945748    17.125268002   -14.889653071
 H       -8.441134161    19.048194154   -16.026161283
 H       -7.637602393    18.775668223   -13.746935319
 H        1.675325966    19.843002023     0.611810756
 H        2.576736494    20.369035889    -0.822680572
 H       -0.471006152    19.773541992    -0.870193004
 H        0.185649082    21.363893345    -0.506306781
 H        1.275479849    21.529595958    -2.739458701
 H        0.903155298    19.835233493    -3.112954463
 H        2.263336528    -1.029696743    -0.041771247
 H        2.275004058     0.477949582     0.907131447
 H        2.261453547     0.544148272    -0.876680958
 H      -12.881659457    17.425088600   -18.726783004
 H      -13.376372635    17.656280814   -17.031099438
 H      -12.370586584    16.253478351   -17.485804838
 H      -11.808354456    20.206349509   -18.733871262
 C      -12.434196640    20.717099621   -16.716680677
 C      -10.138238555    21.067867503   -17.645271783
 H       -8.739024608    18.449889160   -18.356623495
 C       -9.171082431    16.324090515   -18.330433514
 C       -9.991707518    17.947403142   -20.055151149
 H       -6.328110327    14.604002445    -3.700052512
 C       -7.992705742    13.617922979    -4.690497940
 C       -5.813346739    14.207002229    -5.773048676
 H       -9.589524850    16.011293304    -3.862939868
 C       -8.361304007    16.781384018    -2.245427197
 C       -9.483365435    18.175305278    -3.996727344
 H       -6.091859219    11.825020436    -0.835028194
 C       -6.048822185    13.981839932    -1.063479360
 C       -4.839662963    12.345990212    -2.530568584
 H       -4.980075894    13.927561880     1.891368916
 C       -5.942614421    12.008755701     2.222819374
 C       -3.662666353    12.635224126     3.041036775
 H       -1.782324852    -0.898609694    -1.445730841
 C       -0.297248200    -0.170421375    -2.849351426
 C       -0.195754771    -2.365125412    -1.642545778
 H       -0.114049517    -1.937330346     1.512907375
 C       -0.190914533    -0.229701365     2.854664938
 C       -2.134878088    -1.144433608     1.573744756
 H      -13.387236441    20.173572228   -16.746680863
 H      -12.667987707    21.760816465   -16.971143552
 H      -12.088592406    20.725161674   -15.672813074
 H       -9.362952767    20.783733226   -18.367945616
 H       -9.674641140    21.106126898   -16.649388395
 H      -10.420788107    22.102108970   -17.890463243
 H       -8.832852830    16.139953244   -17.300538710
 H       -8.319676372    16.079190273   -18.981317010
 H       -9.954750739    15.589254422   -18.557292228
 H      -10.255930956    18.978954631   -20.321470113
 H      -10.821418987    17.298777144   -20.365829934
 H       -9.135898268    17.675973325   -20.690294449
 H       -8.712686839    13.789379062    -3.880403046
 H       -7.598345587    12.602201969    -4.539886459
 H       -8.551232868    13.587944923    -5.636676506
 H       -4.932665006    14.862579513    -5.822858744
 H       -6.243394429    14.158929208    -6.783792322
 H       -5.435740712    13.198827121    -5.551133320
 H       -7.953596850    15.809281017    -1.939333541
 H       -9.215227597    16.979721417    -1.582474629
 H       -7.606426891    17.546457586    -2.012111816
 H       -9.872530647    18.266107483    -5.020686014
 H       -8.812648149    19.027423993    -3.820577343
 H      -10.344410332    18.317285581    -3.328489055
 H       -6.455722484    14.238895375    -0.077111218
 H       -6.907278973    13.968114377    -1.752605152
 H       -5.400336690    14.812408211    -1.379920720
 H       -4.346773431    11.370482911    -2.642306778
 H       -4.144172387    13.114109595    -2.897068516
 H       -5.690177841    12.339608549    -3.228817142
 H       -6.763520080    12.175076135     1.513743458
 H       -6.333987742    12.280811512     3.213878424
 H       -5.744375895    10.928157043     2.260091332
 H       -2.745143710    13.226480369     2.917145598
 H       -3.361999142    11.583985274     3.159102584
 H       -4.099272201    12.939767204     4.002566155
 H       -0.647663561     0.871437194    -2.874809508
 H       -0.769244874    -0.673665129    -3.705172126
 H        0.781712158    -0.161355497    -3.052895794
 H       -0.482214602    -2.971659910    -0.773707034
 H        0.889637092    -2.463865829    -1.776327637
 H       -0.657483995    -2.845186064    -2.517659953
 H        0.895292011    -0.107820072     2.954607364
 H       -0.513630497    -0.826865937     3.719561736
 H       -0.649674359     0.762040019     2.977501118
 H       -2.510188659    -1.705904141     0.708929809
 H       -2.700004081    -0.203847693     1.637321425
 H       -2.414081416    -1.728987023     2.462545796

