187   

Si        0.000000000     0.000000000     0.000000000
 C        1.865291108     0.000000000     0.000000000
 C       -0.651672542     1.721668438     0.000000000
 C        0.063195457     2.727092642    -0.659699761
 C       -0.407679558     4.038023902    -0.674953265
 C       -1.595795786     4.378655275    -0.022183994
 C       -2.311973778     3.371417125     0.636040811
 C       -1.850693068     2.056685758     0.640783653
 C       -2.114835386     5.742374823    -0.020056291
 C       -1.511609929     6.775302660    -0.632412197
 C       -2.004616206     8.147079921    -0.648203662
 C       -3.184603846     8.538471567    -0.012269026
 C       -3.612858124     9.866354855    -0.057735126
 C       -2.879325553    10.822358800    -0.763176114
 C       -1.699532549    10.428888710    -1.413411677
 C       -1.268785838     9.108228367    -1.355585553
Si       -3.369265255    12.594005380    -0.876415976
 C       -3.257098322    13.087807413    -2.635823969
 C       -3.463823560    12.203345044    -3.621312681
 C       -3.395428343    12.506600053    -5.049410290
 C       -3.638074243    11.466968129    -5.961080936
 C       -3.588646214    11.688137044    -7.325132181
 C       -3.217571135    12.955119567    -7.828862316
 C       -2.970599471    13.996248239    -6.915375804
 C       -3.091563177    13.773933722    -5.547736499
 N       -3.177181081    13.147036460    -9.220412654
 C       -2.616475657    12.049001812   -10.037987516
 C       -2.803211998    14.486815824    -9.699748776
 C       -1.411235519    11.293450738    -9.452632781
 C       -0.145692419    12.153727892    -9.273548707
 N        0.558337811    11.927224476    -7.992922075
 C        0.761602410    10.579299176    -7.626179405
 C        1.173168971     9.659035084    -8.613643647
 C        1.381453605     8.329368483    -8.287142174
 C        1.240988220     7.875512489    -6.966799988
 C        0.858673741     8.793941112    -5.986247797
 C        0.621200413    10.126716657    -6.302078228
 C        0.120680863    12.832917029    -6.918323025
 C        1.474354637     6.458522690    -6.684016072
 C        1.373680519     5.899010411    -5.470533063
Si        1.671323649     4.124191544    -5.146882332
 C        2.900994307     3.406226290    -6.312544926
 C        3.947881017     4.198364670    -6.797265897
 C        4.887028621     3.668797327    -7.680737711
 C        4.811930338     2.333394787    -8.086744756
 C        3.768947689     1.539317260    -7.592459819
 C        2.825376184     2.067334999    -6.714682413
 C        5.771976914     1.736310185    -9.009158168
 C        6.814854015     2.385198075    -9.554468336
 C        7.774590212     1.787507169   -10.476864886
 C        7.695855392     0.454397900   -10.887676924
 C        8.635266434    -0.076488559   -11.771480676
 C        9.672436508     0.718438060   -12.269340456
 C        9.753363233     2.056288938   -11.859315472
 C        8.817437733     2.581693958   -10.972826187
Si       10.919701050     0.032129888   -13.436353872
 C       10.377988348    -1.612691883   -14.129714970
 C       11.174455821     1.286801555   -14.845198565
 C       12.576061868    -0.201261927   -12.527838980
 C        2.391161045     3.946331764    -3.391891720
 C        0.032356801     3.163266144    -5.223489087
 C       -5.145607955    12.855232412    -0.251514940
 C       -2.192935027    13.664612564     0.162976115
 C       -0.627536740    -0.857475499    -1.581178736
 C       -0.664254120    -0.948070527     1.507892737
 H        1.007668857     2.523846106    -1.175890114
 H        0.169657491     4.805054974    -1.190906016
 H       -3.240929440     3.614023350     1.148011567
 H       -2.455618663     1.311823448     1.164379620
 H       -3.051188228     5.881379371     0.525245146
 H       -0.572977076     6.625278903    -1.177361121
 H       -3.778736778     7.808052425     0.533286436
 H       -4.535525666    10.117742584     0.471675116
 H       -1.091001276    11.134719721    -1.990475738
 H       -0.351873647     8.820304339    -1.867511776
 H       -3.033261004    14.142948959    -2.835406902
 H       -3.694915406    11.143737258    -3.425194140
 H       -3.887704124    10.470708378    -5.590133149
 H       -3.845804002    10.884868791    -8.011308727
 H       -2.693885261    14.986029215    -7.261270169
 H       -2.923787197    14.603167186    -4.859359118
 H       -2.932981794    14.536510019   -10.794638785
 H       -1.770004126    14.779606305    -9.454746158
 H       -3.495732283    15.233617444    -9.268449530
 H        0.046232609    13.862537452    -7.304006615
 H        0.883404725    12.843396055    -6.119184917
 H       -0.856461046    12.561336578    -6.479357441
 H        1.325679069     9.992687242    -9.635855625
 H        1.676393826     7.628636546    -9.069176923
 H        0.733981226     8.466099117    -4.953176317
 H        0.305706496    10.803208542    -5.512665199
 H        1.752704910     5.883840910    -7.579567060
 H        1.080928725     6.490743505    -4.590252848
 H        4.061468342     5.249313908    -6.509513304
 H        5.686347246     4.308324418    -8.051203658
 H        3.692506970     0.497177348    -7.895930904
 H        2.033638479     1.399691129    -6.363813966
 H        5.587654502     0.683717756    -9.243059757
 H        6.999571748     3.437795101    -9.320350803
 H        6.895842822    -0.184553927   -10.518315034
 H        8.521942826    -1.126313460   -12.055518013
 H       10.541848904     2.725086134   -12.215979544
 H        8.897807354     3.622476268   -10.664603836
 H       -3.451919652    11.322461547   -10.199241691
 H       -2.356486229    12.441193872   -11.045478241
 H       -1.684077016    10.834597794    -8.478730907
 H       -1.184134886    10.426757274   -10.104224527
 H        0.581501894    11.944677668   -10.091726380
 H       -0.388378486    13.234277710    -9.358879529
 H        2.262960325    -1.028714177     0.061838933
 H        2.259243181     0.560707496     0.867372009
 H        2.278378643     0.461990743    -0.914131732
 H       11.109594817    -1.995922305   -14.863291217
 H        9.405469112    -1.523357685   -14.647023414
 H       10.270307334    -2.375060157   -13.338401355
 H       11.548327038     2.232003663   -14.354024480
 C       12.226344631     0.845060500   -15.878183582
 C        9.862999510     1.624279077   -15.577430763
 H       13.273604011    -0.669272556   -13.281203925
 C       13.208372507     1.117797601   -12.048804903
 C       12.459921591    -1.157358216   -11.326481040
 H        1.553313170     4.203328767    -2.681870063
 C        2.865805990     2.514420760    -3.088196561
 C        3.553057155     4.920214512    -3.127586348
 H        0.283250176     2.096211316    -4.952942421
 C       -1.026324980     3.664472562    -4.226465398
 C       -0.574785053     3.167858497    -6.638261910
 H       -5.172343172    12.431274788     0.794008271
 C       -5.553233116    14.337611898    -0.172125372
 C       -6.184294201    12.102270166    -1.102762613
 H       -2.558840598    14.725961383     0.046310845
 C       -2.223971007    13.308992635     1.659902115
 C       -0.736591920    13.608909304    -0.332718572
 H       -0.213275725    -1.905918664    -1.549792836
 C       -2.162835243    -0.950833168    -1.642762527
 C       -0.122021594    -0.182191531    -2.869446079
 H       -1.789769961    -0.915675861     1.425071406
 C       -0.240284926    -2.427736031     1.537560611
 C       -0.268718387    -0.289051790     2.842046676
 H       13.213922368     0.654194949   -15.438673410
 H       12.371670515     1.636602438   -16.627749703
 H       11.928777776    -0.053170668   -16.435222126
 H        9.077443316     2.003004351   -14.907795568
 H        9.445628012     0.769880327   -16.126453282
 H       10.038828819     2.414024559   -16.321649431
 H       13.404079527     1.828097664   -12.861972746
 H       14.181269315     0.917605211   -11.576507545
 H       12.600806926     1.631154267   -11.290126136
 H       12.096687238    -2.156845316   -11.597960683
 H       11.804652041    -0.769078923   -10.533396515
 H       13.446929937    -1.304429176   -10.864928819
 H        2.072115831     1.761331682    -3.183790444
 H        3.239571972     2.450830682    -2.055782059
 H        3.699452205     2.196181048    -3.731201620
 H        3.279974563     5.974988339    -3.265739985
 H        4.429846535     4.721846797    -3.759778037
 H        3.897790591     4.823117467    -2.088175428
 H       -0.717184036     3.569039380    -3.176188928
 H       -1.946254101     3.069598930    -4.320845718
 H       -1.321006866     4.709164438    -4.396026155
 H        0.099603185     2.768618640    -7.407798075
 H       -0.888471054     4.170390054    -6.963598346
 H       -1.476890821     2.540523556    -6.664345554
 H       -4.914624660    14.930056080     0.495417647
 H       -6.574847964    14.424978312     0.225603633
 H       -5.563914500    14.831631651    -1.153487476
 H       -5.997224834    11.022140053    -1.172317906
 H       -6.253016807    12.489163940    -2.130305924
 H       -7.185497658    12.214079111    -0.663604416
 H       -3.218803282    13.412013640     2.112235363
 H       -1.560108092    13.982468747     2.221134637
 H       -1.868845465    12.288838490     1.865049840
 H       -0.624194675    13.878677911    -1.391500865
 H       -0.275260641    12.621616388    -0.187634139
 H       -0.119371550    14.320459253     0.234258620
 H       -2.599819990    -1.508529772    -0.804823691
 H       -2.471926328    -1.480271734    -2.555596529
 H       -2.649820590     0.034255719    -1.679631779
 H        0.972226377    -0.186104115    -2.958536754
 H       -0.468512506     0.857477771    -2.972504825
 H       -0.502908955    -0.719188937    -3.750049653
 H       -0.554262525    -2.988161956     0.647491017
 H       -0.703833473    -2.933600582     2.397140262
 H        0.843662278    -2.561158899     1.651820333
 H       -0.578133794     0.762861719     2.918126795
 H        0.811810863    -0.329238472     3.035145730
 H       -0.751510582    -0.813031486     3.679294836

