187   

Si        0.000000000     0.000000000     0.000000000
 C        1.865302803     0.000000000     0.000000000
 C       -0.678189544     1.711216338     0.000000000
 C        0.119211027     2.801329960    -0.362908938
 C       -0.403184295     4.094536097    -0.359994988
 C       -1.733798424     4.327027164    -0.002441413
 C       -2.532943550     3.233089313     0.355896090
 C       -2.013896865     1.941332998     0.356234566
 C       -2.322684511     5.662004897     0.014890874
 C       -1.667348897     6.791243393    -0.303448793
 C       -2.255078516     8.126719932    -0.286507420
 C       -3.586329428     8.359432150     0.071204700
 C       -4.107265273     9.652527466     0.073709978
 C       -3.302102221    10.742938938    -0.273007338
 C       -1.968152261    10.513879605    -0.631754779
 C       -1.454119386     9.219565152    -0.642213943
Si       -3.982789718    12.451766652    -0.271863436
 C       -2.618907404    13.663774709    -0.168749160
 C       -2.451637913    14.724575135    -0.969208319
 C       -1.343469889    15.674026707    -0.853944947
 C       -1.274690902    16.748585069    -1.752133237
 C       -0.247137977    17.675218148    -1.686483040
 C        0.734065832    17.585264108    -0.674757451
 C        0.664852220    16.506425372     0.228095480
 C       -0.346111017    15.560422168     0.118160410
 N        1.772267207    18.528578614    -0.615318707
 C        1.501020909    19.881698834    -1.130557182
 C        2.635356013    18.503445854     0.574945202
 C        0.343888436    20.621633250    -0.437413249
 C        0.762394787    21.375241436     0.836936926
 N        1.388253104    22.691695161     0.611893812
 C        0.671814379    23.614032754    -0.172370316
 C       -0.733873257    23.677663042    -0.054779792
 C       -1.460902611    24.577386650    -0.816250795
 C       -0.823340226    25.475670383    -1.684613251
 C        0.569845420    25.431096467    -1.777070863
 C        1.313749778    24.524045150    -1.032247144
 C        2.844708091    22.638571510     0.417364206
 C       -1.640442248    26.405512963    -2.466362813
 C       -1.140973355    27.304490306    -3.324406918
Si       -2.111781051    28.487107861    -4.324098106
 C       -1.575907478    28.395490435    -6.081312139
 C       -0.955602671    27.239211476    -6.566608045
 C       -0.546442861    27.161756248    -7.897244585
 C       -0.758767299    28.229754797    -8.773375619
 C       -1.387178519    29.383596797    -8.286123827
 C       -1.792707995    29.466760738    -6.956564371
 C       -0.347485955    28.192616826   -10.172977532
 C        0.262415357    27.150775722   -10.763297256
 C        0.674219072    27.112205530   -12.162592159
 C        0.467738210    28.180263412   -13.039410812
 C        0.877836759    28.100232220   -14.370268003
 C        1.497379451    26.944339545   -14.855412439
 C        1.704167115    25.870827512   -13.978372620
 C        1.299337256    25.956212629   -12.649271996
Si        2.044298745    26.823184611   -16.609024928
 C        1.312464593    28.185879793   -17.651664575
 C        3.942328399    26.941660936   -16.690255503
 C        1.516167125    25.123445648   -17.284075484
 C       -3.973713666    28.114059730    -4.224650894
 C       -1.804984263    30.240541965    -3.651430776
 C       -5.015629729    12.708628435    -1.847943189
 C       -5.113242174    12.682946228     1.241622787
 C       -0.619201898    -0.917832471    -1.548088224
 C       -0.651877726    -0.911316578     1.539304662
 H        1.166924166     2.682407718    -0.652588840
 H        0.239726382     4.926214107    -0.642623533
 H       -3.572213497     3.391923911     0.637300303
 H       -2.685157743     1.127753274     0.645104540
 H       -3.374213499     5.694221520     0.314529537
 H       -0.615747791     6.758341917    -0.603521731
 H       -4.229898990     7.527539391     0.350604789
 H       -5.156028072     9.772427374     0.358854467
 H       -1.295349991    11.330215422    -0.914730874
 H       -0.416230073     9.059012918    -0.927983802
 H       -1.911531740    13.453940160     0.650835267
 H       -3.141979719    14.965618337    -1.788377006
 H       -2.035945766    16.853890929    -2.526209353
 H       -0.207352437    18.474916438    -2.420637813
 H        1.402704883    16.391694245     1.015038194
 H       -0.364585058    14.724417214     0.819718480
 H        3.395758111    19.299090793     0.511109045
 H        3.183336912    17.542481545     0.602098792
 H        2.082248167    18.620862319     1.521415280
 H        3.289536584    21.896519280     1.100879798
 H        3.278167784    23.619897103     0.689168575
 H        3.148459612    22.393943248    -0.613600270
 H       -1.254165440    23.017454236     0.633704189
 H       -2.547648370    24.594527370    -0.725567337
 H        1.092314439    26.118632347    -2.444687562
 H        2.393437053    24.523451982    -1.138409588
 H       -2.717026482    26.293889288    -2.282170562
 H       -0.052886878    27.397463036    -3.479524182
 H       -0.767915087    26.369578530    -5.928155316
 H       -0.060170333    26.254240879    -8.250326683
 H       -1.562029698    30.226035599    -8.952439069
 H       -2.276929815    30.391785806    -6.632142192
 H       -0.573311673    29.099997367   -10.740616526
 H        0.487458434    26.243101002   -10.195397680
 H       -0.016931387    29.089364886   -12.688163681
 H        0.690437876    28.968731073   -15.007720166
 H        2.182073856    24.941791055   -14.301878110
 H        1.469562638    25.112534044   -11.983067940
 H        2.438682213    20.476607036    -1.070201085
 H        1.287648974    19.789030199    -2.222840729
 H       -0.119301418    21.329912077    -1.154675079
 H       -0.462881188    19.902358739    -0.187445044
 H       -0.134296062    21.541467295     1.481889456
 H        1.451222625    20.753079825     1.448603419
 H        2.262960688    -1.029569490     0.046615071
 H        2.260548048     0.548571377     0.874359433
 H        2.275880138     0.473880399    -0.908688237
 H        1.611177977    28.081196176   -18.710049786
 H        1.640459862    29.183513235   -17.310913487
 H        0.208108979    28.162731677   -17.615086462
 H        4.202328889    26.911969299   -17.787933024
 C        4.477484677    28.262821908   -16.108258760
 C        4.663401041    25.770473288   -15.999111677
 H        2.037723807    24.358616982   -16.637968555
 C       -0.000037807    24.886463337   -17.162695637
 C        1.946580308    24.880674633   -18.741604000
 H       -4.227352678    28.091166530    -3.125248573
 C       -4.847197248    29.191991906    -4.891269864
 C       -4.331789233    26.744632297    -4.830321996
 H       -2.443671575    30.929687911    -4.276176587
 C       -2.227309214    30.402675231    -2.180748728
 C       -0.338713922    30.682519347    -3.805098379
 H       -5.325370672    13.793785899    -1.841870212
 C       -4.205522675    12.446160894    -3.130609729
 C       -6.293193599    11.850975642    -1.887343362
 H       -5.953168559    11.939574919     1.118840860
 C       -4.394781478    12.372368205     2.566867544
 C       -5.730680562    14.090037530     1.322281251
 H       -0.136112850    -1.936906062    -1.513372007
 C       -2.145644265    -1.114908409    -1.573864098
 C       -0.188392047    -0.229155949    -2.855972689
 H       -1.776371590    -0.921032147     1.440468631
 C       -0.175797956    -2.371745803     1.635417050
 C       -0.300842154    -0.182073802     2.848869458
 H        4.073960908    29.154096266   -16.605672031
 H        5.569300070    28.312363994   -16.228024835
 H        4.281401944    28.365303103   -15.031190530
 H        4.406466740    24.790663942   -16.421028062
 H        4.475758673    25.732476306   -14.916784056
 H        5.751658347    25.878345358   -16.116401548
 H       -0.375038518    24.991574162   -16.134510603
 H       -0.247815933    23.862342024   -17.476292125
 H       -0.591746052    25.556533096   -17.800327852
 H        3.030230691    24.964139052   -18.895029311
 H        1.454919896    25.558418910   -19.451987691
 H        1.670707363    23.861386203   -19.049051122
 H       -4.730125584    30.186621778    -4.442586158
 H       -5.910527604    28.931991656    -4.785090003
 H       -4.663118948    29.285478917    -5.970900339
 H       -3.781469264    25.906801196    -4.381079017
 H       -4.162889111    26.702722341    -5.916209824
 H       -5.398952041    26.531344664    -4.676829311
 H       -3.289861062    30.189727743    -2.006665516
 H       -2.064113697    31.439718531    -1.854238657
 H       -1.644752722    29.769705175    -1.495836142
 H        0.024950578    30.633665636    -4.841175052
 H        0.352169500    30.097460478    -3.182604388
 H       -0.225998320    31.729580475    -3.489669917
 H       -3.290358819    13.049415784    -3.204904200
 H       -4.809617694    12.690545502    -4.015553776
 H       -3.912137270    11.391928433    -3.239850092
 H       -6.982272834    12.057167690    -1.058630966
 H       -6.084911174    10.771728638    -1.892418077
 H       -6.854774111    12.056659363    -2.810329212
 H       -3.961711933    11.362623932     2.601173383
 H       -5.106045312    12.429231990     3.403091037
 H       -3.591861503    13.086250041     2.796207170
 H       -6.332811251    14.352515579     0.442959851
 H       -4.978179046    14.880100211     1.457879563
 H       -6.405376083    14.156093729     2.187709488
 H       -2.525237398    -1.688571721    -0.718931259
 H       -2.436287111    -1.677449303    -2.473093832
 H       -2.698367143    -0.165670254    -1.615827634
 H        0.899372528    -0.122118382    -2.955351861
 H       -0.634111824     0.768365931    -2.979939465
 H       -0.518561869    -0.822701783    -3.720570368
 H       -0.451513072    -2.977580412     0.762653727
 H       -0.637320242    -2.860076367     2.506071682
 H        0.909850682    -2.460010760     1.774490101
 H       -0.659405657     0.856896880     2.876622057
 H        0.777591815    -0.164874433     3.054931441
 H       -0.770680888    -0.691965350     3.701946875

