187   

Si        0.000000000     0.000000000     0.000000000
 C        1.865426671     0.000000000     0.000000000
 C       -0.672207682     1.713891969     0.000000000
 C        0.137534969     2.803592161     0.335911273
 C       -0.379293720     4.098898870     0.333523266
 C       -1.716115472     4.334479654     0.001862088
 C       -2.527299047     3.241191558    -0.330211923
 C       -2.014023217     1.947021398    -0.330250446
 C       -2.298281175     5.672499851    -0.013475640
 C       -1.628975577     6.799505075     0.282667946
 C       -2.206125686     8.139457268     0.268868814
 C       -3.541904685     8.382624793    -0.061721685
 C       -4.051053678     9.681094139    -0.061732488
 C       -3.236422106    10.763826549     0.284210028
 C       -1.896888578    10.522779341     0.618114610
 C       -1.388684358     9.226960496     0.604814992
Si       -3.877976450    12.488002870     0.293833024
 C       -3.076030013    13.505184708     1.583911452
 C       -2.609617291    13.019935382     2.742635390
 C       -1.967378197    13.832728889     3.776484273
 C       -1.520050996    13.205539240     4.949157894
 C       -0.906075736    13.928204875     5.958125265
 C       -0.757725878    15.327957839     5.845596138
 C       -1.205696509    15.957947782     4.670132444
 C       -1.779748693    15.211004403     3.648739566
 N       -0.129924391    16.038712823     6.885481766
 C       -0.449862552    15.614091189     8.260518353
 C       -0.041590025    17.500027703     6.738267769
 C       -1.960869647    15.596650320     8.572727671
 C       -2.237230552    15.794817199    10.074738183
 N       -2.628627774    17.174364859    10.451693996
 C       -1.690028722    18.155044507    10.020993552
 C       -0.411307899    18.125718041    10.611284994
 C        0.547973984    19.052161207    10.236479619
 C        0.258076839    20.048339189     9.291081061
 C       -1.019183472    20.086127000     8.727656941
 C       -1.990489499    19.158891703     9.090531788
 C       -4.037426144    17.462911035    10.127074204
 C        1.306892927    21.004733516     8.928179445
 C        1.137115592    21.991797873     8.039646176
Si        2.395358911    23.219290731     7.537809775
 C        2.463454750    23.275025145     5.700420637
 C        2.005599204    22.184448898     4.950367418
 C        2.053106970    22.217355521     3.559077538
 C        2.568261655    23.332432836     2.885337618
 C        3.030959770    24.415849376     3.638059568
 C        2.981342800    24.388548517     5.031182186
 C        2.596521634    23.318799515     1.426515462
 C        3.058909021    24.320933207     0.659781596
 C        3.086434102    24.305638961    -0.799107482
 C        2.623797380    23.222429457    -1.550536306
 C        2.668843320    23.250097860    -2.944394067
 C        3.172949889    24.367079782    -3.617863816
 C        3.637447750    25.455119538    -2.866210026
 C        3.596686574    25.422095424    -1.475200737
Si        3.239261489    24.419323055    -5.456909951
 C        2.216824502    23.058321077    -6.219448106
 C        2.602107978    26.119304919    -6.029495979
 C        5.043486244    24.225048638    -6.031218730
 C        1.895216785    24.922540754     8.218644780
 C        4.112772094    22.765204384     8.213669793
 C       -3.522245571    13.278867932    -1.399671302
 C       -5.757941467    12.491419557     0.585877621
 C       -0.655169011    -0.903892629    -1.541952647
 C       -0.619692270    -0.919870573     1.546578684
 H        1.190864856     2.682662942     0.603762249
 H        0.273163740     4.930041357     0.595228485
 H       -3.571361893     3.402437857    -0.591678839
 H       -2.694542598     1.134080953    -0.598346708
 H       -3.355390045     5.709158614    -0.291652617
 H       -0.571299255     6.761077425     0.560509679
 H       -4.198051160     7.555783734    -0.326212649
 H       -5.101457485     9.809197981    -0.336327598
 H       -1.213340476    11.333036181     0.895125711
 H       -0.344575917     9.059369493     0.862840474
 H       -3.013369017    14.578211210     1.348323189
 H       -2.668589043    11.954060077     3.006293007
 H       -1.645745783    12.128247540     5.065262173
 H       -0.536270162    13.411626591     6.839190484
 H       -1.107945839    17.031389219     4.543132581
 H       -2.104085718    15.721143962     2.740772249
 H        0.540364981    17.924572041     7.577946949
 H       -1.021327276    18.004604677     6.722257867
 H        0.510465992    17.743216960     5.812952448
 H       -4.677007397    16.761209609    10.691347182
 H       -4.286943646    17.376562774     9.058209382
 H       -4.293829066    18.479329947    10.473368306
 H       -0.188008472    17.377364147    11.369087371
 H        1.536770170    19.013071050    10.694061483
 H       -1.270528850    20.854874213     7.994962299
 H       -2.973577170    19.213652400     8.631686205
 H        2.253409769    20.833062575     9.456216638
 H        0.166637655    22.141506606     7.535404748
 H        1.598965033    21.284030571     5.422702431
 H        1.688509968    21.363247377     2.991135707
 H        3.436485887    25.293776649     3.138601601
 H        3.356704053    25.264874539     5.566682530
 H        2.202801341    22.405657474     0.970313092
 H        3.453397382    25.234028945     1.115223801
 H        2.222869849    22.342326348    -1.051010994
 H        2.293568929    22.372195659    -3.477557980
 H        4.041998077    26.355010790    -3.338173328
 H        3.964030423    26.275789355    -0.908758650
 H       -0.010849982    14.603764933     8.422744316
 H        0.085896637    16.291631915     8.965289804
 H       -2.473940272    16.380868399     7.983112300
 H       -2.402584075    14.645773635     8.221453140
 H       -3.045332672    15.107357603    10.410112664
 H       -1.343739307    15.523578470    10.680642300
 H        2.263573140    -1.029135838    -0.051571178
 H        2.275666605     0.469654668     0.911058600
 H        2.260420225     0.552661472    -0.871894792
 H        2.227613710    23.122950657    -7.322249979
 H        1.162778148    23.124847963    -5.893848813
 H        2.593185129    22.058192291    -5.941666055
 H        3.295972940    26.881147538    -5.568442096
 C        2.643474767    26.308132304    -7.556319293
 C        1.177653130    26.414564525    -5.525893386
 H        5.004513666    24.213365523    -7.158903533
 C        5.957329512    25.385537408    -5.598454939
 C        5.672636652    22.900567152    -5.561565495
 H        2.711152029    25.635086961     7.901753790
 C        0.567449236    25.427999827     7.626872692
 C        1.805288507    24.953898877     9.754325368
 H        3.986071918    22.641833263     9.328237999
 C        4.635945235    21.436047568     7.638803789
 C        5.169811799    23.857641027     7.973054912
 H       -3.939926611    14.325539987    -1.349163713
 C       -2.013972092    13.379422114    -1.690068745
 C       -4.208153152    12.545743223    -2.565422592
 H       -6.207736116    11.899252197    -0.262498431
 C       -6.144742048    11.804743199     1.908075207
 C       -6.373441180    13.901889703     0.557782866
 H       -1.779946334    -0.904638152    -1.445901338
 C       -0.295227762    -0.175280901    -2.849418219
 C       -0.190576117    -2.367928443    -1.639292125
 H       -0.133251055    -1.937341242     1.512773156
 C       -0.192553661    -0.229776402     2.855046213
 C       -2.145470924    -1.121623682     1.570781709
 H        3.647015011    26.183078183    -7.983100846
 H        2.323950508    27.327663697    -7.817035621
 H        1.965850619    25.628990611    -8.090443538
 H        1.082574109    26.353074510    -4.432291171
 H        0.421502428    25.748015002    -5.961349835
 H        0.884221380    27.437316966    -5.802276963
 H        5.622208287    26.364388066    -5.963931020
 H        6.968940738    25.237540661    -6.003943203
 H        6.072883091    25.453327705    -4.507490362
 H        5.124301021    22.012226421    -5.900482367
 H        5.766599375    22.836398298    -4.467905780
 H        6.691410813    22.804001030    -5.963665750
 H        0.569047783    25.473960929     6.528609141
 H        0.364972961    26.450846238     7.975696492
 H       -0.296537098    24.822437500     7.932821489
 H        2.746154672    24.685245899    10.251796281
 H        1.019420538    24.295251782    10.151025628
 H        1.556203505    25.968823460    10.096253308
 H        3.957146841    20.587604732     7.800540523
 H        5.587667838    21.166254094     8.117903203
 H        4.840536225    21.490825480     6.559501036
 H        4.920625729    24.816901376     8.444351718
 H        5.357766233    24.044874191     6.906268509
 H        6.134129833    23.547831747     8.401972085
 H       -1.458869472    13.941087278    -0.926159497
 H       -1.846913232    13.904319821    -2.641200136
 H       -1.532866742    12.396071564    -1.793873620
 H       -5.301764189    12.516929100    -2.479057672
 H       -3.854752431    11.511836691    -2.688377603
 H       -3.988839073    13.058015131    -3.513427262
 H       -5.790720828    10.767065939     1.981668727
 H       -7.238398402    11.764969734     2.007664359
 H       -5.773439136    12.342771283     2.792533880
 H       -6.207833484    14.431068613    -0.389231784
 H       -6.005863467    14.544341770     1.370306620
 H       -7.463564055    13.838496922     0.686479481
 H       -0.645980491     0.866422318    -2.876299905
 H       -0.766585874    -0.679917898    -3.704729305
 H        0.783832971    -0.165841526    -3.052665754
 H       -0.476890392    -2.973780100    -0.769930995
 H        0.895121242    -2.465004333    -1.771866612
 H       -0.650555575    -2.850023739    -2.514194384
 H        0.894819326    -0.119736338     2.955812811
 H       -0.522264439    -0.824048699     3.719293949
 H       -0.640987918     0.766623499     2.978199513
 H       -2.524131848    -1.687103385     0.710007976
 H       -2.700444028    -0.174222261     1.622975701
 H       -2.434259214    -1.694472236     2.464076691

