187   

Si        0.000000000     0.000000000     0.000000000
 C        1.865385718     0.000000000     0.000000000
 C       -0.681672483     1.709872633     0.000000000
 C        0.140295354     2.818097003    -0.226830830
 C       -0.390806608     4.107954367    -0.223801763
 C       -1.753987721     4.318755754    -0.001582042
 C       -2.577027161     3.206834535     0.222869443
 C       -2.049326227     1.918809879     0.224741438
 C       -2.354211977     5.648645720     0.010685089
 C       -1.680934810     6.795002234    -0.185575304
 C       -2.283485237     8.124021861    -0.172843877
 C       -3.648179506     8.329559329     0.050002849
 C       -4.183303125     9.616860000     0.053907399
 C       -3.359285293    10.728441499    -0.152100029
 C       -1.991369491    10.527106369    -0.373921429
 C       -1.462698667     9.238736687    -0.388575792
Si       -4.055146773    12.430133339    -0.148814416
 C       -2.744308407    13.635550344     0.262161535
 C       -2.459898374    14.749734674    -0.424005427
 C       -1.397521043    15.687996328    -0.055757958
 C       -1.192605183    16.824521334    -0.853635801
 C       -0.201830152    17.741632219    -0.548477824
 C        0.601786171    17.564713380     0.598617255
 C        0.404062728    16.424656515     1.394267279
 C       -0.568435029    15.491947786     1.050497437
 N        1.598826847    18.526941189     0.867293338
 C        1.150997837    19.938855830     0.864871688
 C        2.544148690    18.220421308     1.952949195
 C       -0.264024845    20.193880031     1.410053415
 C       -0.441652100    19.748039472     2.873497425
 N       -1.843375022    19.424363748     3.218198867
 C       -2.772595408    20.454864981     2.932555088
 C       -2.506679058    21.749150708     3.425796483
 C       -3.386706206    22.788027468     3.171569817
 C       -4.574837748    22.571872781     2.457075073
 C       -4.846721457    21.282826193     1.993122374
 C       -3.966993366    20.232365987     2.228750329
 C       -2.231326467    18.067754007     2.792818802
 C       -5.470983588    23.704866932     2.215413707
 C       -6.628117576    23.614901987     1.547207958
Si       -7.786724102    24.988417359     1.213828188
 C       -9.490426845    24.491408331     1.697261241
 C       -9.690336531    23.440624043     2.598681931
 C      -10.980459358    23.061175161     2.967390292
 C      -12.095777754    23.728072779     2.453213556
 C      -11.892016008    24.784350307     1.555075184
 C      -10.605477590    25.163471482     1.181135539
 C      -13.463270765    23.365598612     2.810772478
 C      -13.795957614    22.376356679     3.657306809
 C      -15.163243678    22.013536543     4.015149494
 C      -16.279314556    22.676656785     3.498621630
 C      -17.569421657    22.296429450     3.868202259
 C      -17.770829481    21.245547252     4.768426697
 C      -16.652981487    20.578692313     5.288172432
 C      -15.366893758    20.957385962     4.913591903
Si      -19.466611011    20.731061469     5.266709569
 C      -20.746154517    21.983076289     4.742260387
 C      -19.884965368    19.057407911     4.462253081
 C      -19.492072679    20.516790793     7.158026286
 C       -7.297276673    26.553892690     2.175793796
 C       -7.744547540    25.375912664    -0.648775631
 C       -4.817430564    12.789350909    -1.853284569
 C       -5.420516597    12.568765404     1.169639661
 C       -0.604593647    -0.927463260    -1.548653814
 C       -0.659421912    -0.900058293     1.542202533
 H        1.213792026     2.716020007    -0.408261225
 H        0.271192605     4.954001177    -0.399257931
 H       -3.641633437     3.348981592     0.398791796
 H       -2.739737247     1.090762342     0.408908441
 H       -3.432205295     5.661555998     0.196831476
 H       -0.603119731     6.782838892    -0.372244107
 H       -4.307504109     7.480579772     0.220396818
 H       -5.258361182     9.714999768     0.227804598
 H       -1.302276580    11.361115303    -0.542821447
 H       -0.398018189     9.099811942    -0.567077495
 H       -2.180210932    13.367911524     1.171629802
 H       -3.005834534    15.047868679    -1.328478718
 H       -1.815588499    16.985153393    -1.734343476
 H       -0.031576184    18.597666799    -1.197275056
 H        1.006073763    16.254742043     2.281262327
 H       -0.689843748    14.602957610     1.671934851
 H        3.398423092    18.918062621     1.886414997
 H        2.956402814    17.205495588     1.809308556
 H        2.115533205    18.291631485     2.965060618
 H       -1.495255805    17.339118494     3.176039299
 H       -2.287767059    17.935295998     1.698906672
 H       -3.206024366    17.807788405     3.241006918
 H       -1.607851172    21.930437509     4.009269491
 H       -3.156739486    23.785312289     3.546563795
 H       -5.763433080    21.087441214     1.434679088
 H       -4.209636334    19.246488865     1.842488012
 H       -5.102293037    24.646362862     2.642758837
 H       -6.965343319    22.653143067     1.124656557
 H       -8.854737169    22.885430389     3.037978188
 H      -11.111237637    22.236894340     3.666232941
 H      -12.747382569    25.316314315     1.143398742
 H      -10.507511198    25.993160266     0.475878450
 H      -14.237560826    23.970636856     2.330156209
 H      -13.021562620    21.771388423     4.138287100
 H      -16.149773773    23.500069285     2.798661468
 H      -18.402954382    22.852499754     3.430377052
 H      -16.749342356    19.750455058     5.995936813
 H      -14.511250643    20.426526267     5.326803664
 H        1.886837087    20.557625862     1.422795533
 H        1.199822197    20.283156426    -0.197062902
 H       -0.505842561    21.270496598     1.315264111
 H       -1.013368191    19.681281411     0.772525748
 H        0.177464789    18.850592763     3.093290530
 H       -0.088815920    20.542306036     3.567559648
 H        2.262934661    -1.029901437     0.040567307
 H        2.262417344     0.543173275     0.876762976
 H        2.274174688     0.478670273    -0.907141486
 H      -21.755012948    21.687032694     5.081145884
 H      -20.783720205    22.094441785     3.644457425
 H      -20.529224456    22.976472920     5.175368364
 H      -20.950456740    18.834971749     4.759816002
 C      -19.819780381    19.109616038     2.924749674
 C      -19.001522705    17.896750284     4.953554498
 H      -18.727803008    19.718646006     7.388957965
 C      -19.073519278    21.798061144     7.901715782
 C      -20.849966737    20.040680530     7.703910484
 H       -6.216342100    26.750716568     1.918230291
 C       -8.114372045    27.796114785     1.777934726
 C       -7.401458504    26.361833630     3.699886547
 H       -8.447648396    26.245049111    -0.801765725
 C       -6.350276846    25.798166928    -1.144240712
 C       -8.248327217    24.201460012    -1.506443919
 H       -5.140038791    13.870418378    -1.828159817
 C       -3.803073402    12.616451999    -2.998511364
 C       -6.057413917    11.929998376    -2.157794774
 H       -6.225461628    11.840186275     0.862654177
 C       -4.928687630    12.170426712     2.572533729
 C       -6.048500246    13.972029113     1.237865455
 H       -0.094385106    -1.933544069    -1.517952126
 C       -2.124794347    -1.166246496    -1.575528387
 C       -0.193613584    -0.223318296    -2.854866644
 H       -1.784180534    -0.894733637     1.445281248
 C       -0.201750366    -2.366116508     1.640710039
 C       -0.296791492    -0.172073204     2.849306297
 H      -20.490932481    19.858264033     2.484602334
 H      -20.121378370    18.140654058     2.501767693
 H      -18.806501905    19.307947797     2.546619522
 H      -19.050742352    17.739746241     6.038448947
 H      -17.944769924    18.018885412     4.677046395
 H      -19.330562754    16.953896218     4.492766118
 H      -18.083831354    22.170810981     7.600876475
 H      -19.012721806    21.604192783     8.982121160
 H      -19.789288048    22.621058324     7.775184800
 H      -21.182482576    19.088094350     7.271674320
 H      -21.653109106    20.774358818     7.554329159
 H      -20.781539607    19.877894544     8.789446690
 H       -8.012925192    28.063785674     0.718594254
 H       -7.769481489    28.670672901     2.348754952
 H       -9.186191124    27.692359034     1.998427212
 H       -6.814920557    25.513263750     4.078051616
 H       -8.437510652    26.221013631     4.040836805
 H       -7.025109011    27.253956387     4.219774338
 H       -5.958095072    26.687832294    -0.634887888
 H       -6.390675679    26.048913761    -2.213827329
 H       -5.600938756    24.999917813    -1.043702541
 H       -9.261963885    23.870641589    -1.239179024
 H       -7.589472815    23.323565612    -1.460116612
 H       -8.291916084    24.498544681    -2.563898843
 H       -2.898205858    13.228269853    -2.881831066
 H       -4.257299354    12.915594233    -3.953614071
 H       -3.479122897    11.573162537    -3.125686847
 H       -6.876712805    12.077968389    -1.442829224
 H       -5.834516550    10.854270178    -2.196952034
 H       -6.462941508    12.192891670    -3.145807544
 H       -4.499056971    11.159490175     2.613224665
 H       -5.769168790    12.174410378     3.281247003
 H       -4.180869023    12.865908600     2.977691976
 H       -6.500741259    14.292886930     0.290588235
 H       -5.331951139    14.747530898     1.545000252
 H       -6.856509772    13.986574602     1.983362604
 H       -2.493230597    -1.731994315    -0.710545466
 H       -2.395983983    -1.754956482    -2.464115615
 H       -2.701938483    -0.233197977    -1.640454137
 H        0.890834557    -0.086728474    -2.955039348
 H       -0.665332207     0.762644627    -2.975016934
 H       -0.508749918    -0.822426205    -3.721182630
 H       -0.487108046    -2.970361427     0.769915318
 H       -0.667370645    -2.846582529     2.513558125
 H        0.883013726    -2.467829635     1.777436018
 H       -0.644015548     0.870800948     2.875581561
 H        0.782166008    -0.166682477     3.052967758
 H       -0.770601334    -0.674597375     3.704595971

