187   

Si        0.000000000     0.000000000     0.000000000
 C        1.865141651     0.000000000     0.000000000
 C       -0.691900714     1.705331676     0.000000000
 C        0.116177057     2.820454115    -0.241722403
 C       -0.427779168     4.105250265    -0.237373457
 C       -1.790015369     4.303253806     0.000995464
 C       -2.599214383     3.184030552     0.240063009
 C       -2.058988846     1.901502219     0.240415753
 C       -2.406384007     5.625330445     0.015999772
 C       -1.754659922     6.782045435    -0.192319492
 C       -2.384477398     8.098535776    -0.174393745
 C       -1.593882707     9.231234962    -0.406724491
 C       -2.154886654    10.506530838    -0.398490090
 C       -3.520494764    10.679281772    -0.145221215
 C       -4.312483449     9.548497055     0.087560661
 C       -3.750346956     8.273635685     0.067303772
Si       -4.299531485    12.346068512    -0.125500876
 C       -5.667390157    12.432724449     1.085409355
 C       -5.713601185    11.710941402     2.213490022
 C       -6.802880591    11.772521562     3.188927359
 C       -6.730130216    10.962564550     4.332664448
 C       -7.732511636    10.981211543     5.287322042
 C       -8.835038973    11.852082994     5.148096447
 C       -8.910278102    12.662788769     4.001899222
 C       -7.916002168    12.601232335     3.032316578
 N       -9.837949879    11.845712265     6.138260277
 C       -9.368915702    11.789616747     7.535235202
 C      -10.966600225    12.771892969     5.952148606
 C       -8.395500475    12.927157514     7.906892606
 C       -8.403894014    13.219724327     9.418102046
 N       -9.299448928    14.326184571     9.827839647
 C      -10.661037242    14.119504045     9.474795782
 C      -11.323923084    13.025521941    10.066751574
 C      -12.650942481    12.770116315     9.764172590
 C      -13.367896309    13.607849590     8.895349439
 C      -12.712930525    14.704803249     8.332080384
 C      -11.377716034    14.969154117     8.620667493
 C       -8.747287942    15.649830794     9.489090428
 C      -14.769346623    13.291509892     8.609492485
 C      -15.549519054    14.016994307     7.798603288
Si      -17.301146328    13.668943626     7.407103718
 C      -18.311613333    15.186477384     7.642716078
 C      -17.844907851    16.230002725     8.448889246
 C      -18.610797979    17.381431319     8.628104651
 C      -19.861012453    17.510217469     8.016987833
 C      -20.328479619    16.460161898     7.215327205
 C      -19.564710012    15.310831507     7.029888665
 C      -20.696492827    18.695926868     8.176180880
 C      -20.368086975    19.769893318     8.914175579
 C      -21.203661209    20.955492689     9.073260068
 C      -22.451437945    21.086523289     8.458579157
 C      -23.217610464    22.238152997     8.637982238
 C      -22.753534526    23.283118082     9.443001280
 C      -21.502382677    23.153924209    10.061326835
 C      -20.737704314    22.005623080     9.875966573
Si      -23.752813313    24.809500059     9.689766508
 C      -25.508581708    24.582506221     9.102213672
 C      -23.730140073    25.244603836    11.542785892
 C      -22.964396672    26.245975888     8.721213800
 C      -17.399667765    13.113919447     5.589369244
 C      -17.991325328    12.280889410     8.507699734
 C       -3.007898727    13.674491813     0.305493337
 C       -5.001594029    12.714854501    -1.854262693
 C       -0.604102757    -0.927798584    -1.549029939
 C       -0.654789164    -0.905131488     1.541769914
 H        1.188164752     2.727691214    -0.435985651
 H        0.222955838     4.957384211    -0.424640930
 H       -3.663075585     3.316482857     0.428446742
 H       -2.739089575     1.067591542     0.436492909
 H       -3.482550204     5.623485897     0.215830836
 H       -0.679795476     6.789051989    -0.392759211
 H       -0.528998522     9.117104946    -0.599013720
 H       -1.489547771    11.352009426    -0.592134575
 H       -5.387071083     9.623395676     0.288508927
 H       -4.388737423     7.410238700     0.246466897
 H       -6.464575538    13.146623104     0.830491771
 H       -4.924354696    10.998164357     2.494025660
 H       -5.876003278    10.297738491     4.468256964
 H       -7.669527914    10.318503580     6.146020407
 H       -9.742875273    13.343619502     3.856891502
 H       -8.005482688    13.228668634     2.144614858
 H      -11.721244882    12.597392693     6.742454306
 H      -11.459748418    12.559761936     4.987161636
 H      -10.681443039    13.835198946     5.989788479
 H       -7.769622478    15.762112272     9.990481853
 H       -9.407470100    16.436898242     9.893942984
 H       -8.605828573    15.823318577     8.410962394
 H      -10.788579446    12.390051885    10.769278833
 H      -13.147661648    11.913043264    10.219801709
 H      -13.250352146    15.373949550     7.658136644
 H      -10.897411561    15.828839522     8.162657517
 H      -15.125114108    12.394183207     9.132252105
 H      -15.159153169    14.910862772     7.282962252
 H      -16.876547772    16.182363777     8.957598224
 H      -18.224470391    18.182693948     9.255639024
 H      -21.299640104    16.541010993     6.730920472
 H      -19.979755059    14.525184599     6.392661000
 H      -21.648001812    18.660679460     7.637659379
 H      -19.416792635    19.804887916     9.453456032
 H      -22.837456183    20.286046466     7.830189206
 H      -24.185386495    22.282877001     8.130905247
 H      -21.088787664    23.937811215    10.702227450
 H      -19.767965485    21.924195104    10.363472643
 H      -10.263488355    11.804910726     8.199875630
 H       -8.888523628    10.799680709     7.703096713
 H       -7.374335964    12.664640611     7.572330255
 H       -8.653105338    13.842047763     7.339818312
 H       -8.698642175    12.313091606     9.992482982
 H       -7.376257129    13.472292603     9.764126357
 H        2.262263095    -1.030109788     0.038622146
 H        2.262178349     0.541614716     0.877734218
 H        2.274379941     0.480501790    -0.905962080
 H      -26.114127929    25.485221614     9.299155327
 H      -25.994610740    23.737432514     9.622843453
 H      -25.554393988    24.381688869     8.017523385
 H      -22.645870751    25.414197137    11.807512281
 C      -24.504336605    26.530857613    11.881309772
 C      -24.255199804    24.096411119    12.423599331
 H      -23.653218426    27.127384491     8.869400649
 C      -21.567580291    26.641925987     9.232214727
 C      -22.873947782    25.959358610     7.211120911
 H      -18.484985116    12.873216277     5.396433701
 C      -16.978684106    14.224600105     4.610604099
 C      -16.571571228    11.849668797     5.300960414
 H      -17.277669346    11.413567934     8.397636562
 C      -18.038517266    12.679595615     9.994047715
 C      -19.390227382    11.801987805     8.080699956
 H       -2.214222859    13.610311192    -0.493778713
 C       -3.580125766    15.103309484     0.291449961
 C       -2.339226728    13.419103551     1.668178925
 H       -5.455992870    13.745678570    -1.792602371
 C       -3.924796452    12.731578072    -2.953104290
 C       -6.111239287    11.726676103    -2.255954795
 H       -0.092947867    -1.933294751    -1.519267322
 C       -2.124102616    -1.168155808    -1.574740681
 C       -0.194880332    -0.221852466    -2.854762693
 H       -1.779288308    -0.909963394     1.443197730
 C       -0.184882589    -2.367400232     1.640626353
 C       -0.299621059    -0.174294431     2.849177612
 H      -24.139569893    27.413410253    11.340078765
 H      -24.398531261    26.761605217    12.951441736
 H      -25.582469286    26.444244870    11.691905926
 H      -23.711073350    23.152453513    12.276113395
 H      -25.322588915    23.890149696    12.269174393
 H      -24.140474905    24.353702740    13.486281486
 H      -21.558071746    26.942611979    10.287499935
 H      -21.191543939    27.505686279     8.664561922
 H      -20.823502981    25.843605132     9.101294385
 H      -23.846471114    25.749790651     6.747537652
 H      -22.204962230    25.119270246     6.975077698
 H      -22.465634500    26.834418517     6.685302706
 H      -17.557440083    15.151637059     4.728741093
 H      -17.139544884    13.894018134     3.574472230
 H      -15.914254281    14.484578711     4.689297805
 H      -16.876358925    10.983060984     5.901744674
 H      -15.493004497    11.998749815     5.454721480
 H      -16.693814570    11.551645228     4.249653777
 H      -17.068319937    13.002641280    10.395352211
 H      -18.355609035    11.822500775    10.604748050
 H      -18.760377471    13.484485348    10.195834879
 H      -19.422686083    11.406648664     7.057502180
 H      -20.155652842    12.586531020     8.163659214
 H      -19.722228907    10.982685719     8.735200743
 H       -4.003940322    15.393273987    -0.678402545
 H       -2.782780844    15.829264324     0.506563290
 H       -4.353025963    15.261608978     1.056577967
 H       -1.853339283    12.436080347     1.739379512
 H       -3.042357243    13.500451002     2.509929564
 H       -1.553176283    14.165417460     1.849367873
 H       -3.142628469    13.482936496    -2.785731285
 H       -4.381177866    12.974923129    -3.923530016
 H       -3.431188228    11.757783626    -3.083540313
 H       -6.950203746    11.700702712    -1.547086582
 H       -5.744069900    10.696836463    -2.373436319
 H       -6.537385261    12.012793494    -3.227907210
 H       -2.491077426    -1.735536681    -0.710221659
 H       -2.395681167    -1.755846909    -2.463858823
 H       -2.702323384    -0.235552963    -1.637684942
 H        0.889227950    -0.083250479    -2.955476473
 H       -0.668483131     0.763377648    -2.973776685
 H       -0.509478317    -0.820743268    -3.721440823
 H       -0.463071818    -2.973443589     0.768757357
 H       -0.648523990    -2.852330293     2.512014081
 H        0.900345787    -2.460079883     1.779889069
 H       -0.656031752     0.865504387     2.875283713
 H        0.779071959    -0.159373547     3.053734280
 H       -0.769667451    -0.681062779     3.704043965

