187   

Si        0.000000000     0.000000000     0.000000000
 C        1.865108668     0.000000000     0.000000000
 C       -0.691108248     1.705705633     0.000000000
 C        0.122468907     2.821288789    -0.220440663
 C       -0.419553901     4.106770523    -0.216751764
 C       -1.785586837     4.305323952    -0.001317321
 C       -2.600258211     3.185854883     0.216707161
 C       -2.061626101     1.902555703     0.218926810
 C       -2.399082429     5.628853573     0.011768612
 C       -1.739627981     6.784470034    -0.177059767
 C       -2.363270344     8.103823927    -0.161990599
 C       -1.562200425     9.233498835    -0.372789727
 C       -2.116039320    10.511697415    -0.366627255
 C       -3.485330123    10.690889404    -0.137693790
 C       -4.287572867     9.563203199     0.073076741
 C       -3.732342378     8.285092505     0.055197111
Si       -4.249498689    12.364548978    -0.122742298
 C       -5.672921997    12.455095816     1.020741222
 C       -5.793020170    11.722792740     2.136485926
 C       -6.933541998    11.797071036     3.050325758
 C       -6.944473123    10.977985184     4.188349802
 C       -7.999867366    11.009559679     5.085168664
 C       -9.123146397    11.828558558     4.839389820
 C       -9.115051174    12.647159011     3.693472994
 C       -8.025098023    12.641996329     2.832942285
 N      -10.190895441    11.855087784     5.754982489
 C      -10.465830159    10.612437575     6.500199786
 C      -11.420309645    12.541390875     5.319831495
 C      -10.808873806     9.420876430     5.588146026
 C      -11.597915088     8.318402303     6.312619069
 N      -12.929406716     8.709955555     6.828981561
 C      -13.656916915     9.614394891     6.025553328
 C      -13.820408442     9.305227464     4.657890203
 C      -14.525680055    10.160588505     3.829371778
 C      -15.121862108    11.327737618     4.332385808
 C      -14.981189440    11.615503776     5.691277084
 C      -14.268311969    10.770977699     6.535680727
 C      -12.949025596     8.951164694     8.280399088
 C      -15.856367043    12.196863655     3.410752501
 C      -16.464412909    13.332696407     3.775980782
Si      -17.392537371    14.452032599     2.668585728
 C      -19.037487642    14.831989644     3.396798899
 C      -19.587587804    13.995683926     4.375800052
 C      -20.833582096    14.282838323     4.927893357
 C      -21.563164457    15.402788709     4.508457926
 C      -21.013441013    16.231398081     3.525740298
 C      -19.764702196    15.949862607     2.973708014
 C      -22.863937084    15.661109001     5.117173777
 C      -23.660878695    16.698578859     4.809960603
 C      -24.961543162    16.955935618     5.419354612
 C      -25.511035047    16.127917427     6.401470967
 C      -26.758460784    16.411562862     6.957435157
 C      -27.482031530    17.535054779     6.545782122
 C      -26.932941802    18.367215263     5.560617739
 C      -25.690233305    18.078596896     5.003795111
Si      -29.129593250    17.923491940     7.269512594
 C      -29.462520966    16.911894871     8.800866394
 C      -29.175970337    19.780705686     7.684854804
 C      -30.487686515    17.556448409     5.987310444
 C      -16.394076028    16.060828590     2.476149686
 C      -17.635870915    13.674879155     0.950278366
 C       -2.962775155    13.668862579     0.389878603
 C       -4.864303214    12.769497030    -1.876934382
 C       -0.600501143    -0.929649090    -1.549457394
 C       -0.657536214    -0.903154932     1.541559518
 H        1.197550195     2.728257946    -0.396935994
 H        0.235762986     4.959087595    -0.386526382
 H       -3.666915417     3.318534321     0.387394394
 H       -2.746006245     1.068502276     0.398619764
 H       -3.478432360     5.628969368     0.192246589
 H       -0.661161132     6.788277043    -0.358075226
 H       -0.494467080     9.114458455    -0.545662107
 H       -1.442429019    11.354741076    -0.542249777
 H       -5.365222959     9.643028131     0.253747950
 H       -4.378579201     7.424340357     0.216979223
 H       -6.443416882    13.186419793     0.733308568
 H       -5.033703249    10.992961559     2.452149282
 H       -6.100914905    10.313987599     4.382365146
 H       -7.955610348    10.393950539     5.978429301
 H       -9.954376585    13.298331675     3.470416242
 H       -8.037250681    13.299651129     1.962603572
 H      -12.200491377    12.457250155     6.096737803
 H      -11.842144371    12.139999489     4.383132501
 H      -11.207609571    13.617726521     5.190935496
 H      -12.513637940     8.076835082     8.795834641
 H      -13.997109295     9.028614247     8.623118462
 H      -12.404177768     9.852841738     8.601183054
 H      -13.394140304     8.387448269     4.259684519
 H      -14.630215823     9.913815462     2.772111281
 H      -15.439546086    12.513935507     6.108254629
 H      -14.180704623    11.029372492     7.586125319
 H      -15.866001011    11.821983970     2.378881023
 H      -16.431037243    13.685083960     4.820664209
 H      -19.065584012    13.103486290     4.736861884
 H      -21.244074118    13.624850274     5.691637903
 H      -21.560331447    17.107322578     3.182008744
 H      -19.385520915    16.634285029     2.209863482
 H      -23.168724237    14.929847905     5.871738734
 H      -23.356867890    17.429544488     4.055040858
 H      -24.966774147    15.248879221     6.741938211
 H      -27.136510412    15.726357500     7.721224337
 H      -27.452807609    19.259292899     5.199933912
 H      -25.281416966    18.735628432     4.238493036
 H       -9.584011680    10.379328377     7.137795711
 H      -11.301266261    10.819024096     7.206890109
 H      -11.379070441     9.781104360     4.707343819
 H       -9.880394226     8.990876529     5.163940138
 H      -11.771364487     7.470320290     5.605815505
 H      -10.989791453     7.903549715     7.145575533
 H        2.262365566    -1.030175130     0.035972280
 H        2.262609491     0.539346910     0.878926909
 H        2.273971069     0.482737127    -0.905009066
 H      -30.434783037    17.180008023     9.251650271
 H      -28.683761604    17.083576553     9.566122148
 H      -29.485792128    15.830348317     8.580081380
 H      -29.015478614    20.320037649     6.706175114
 C      -30.523628741    20.246782087     8.263830716
 C      -28.046290755    20.198546636     8.643516741
 H      -31.465241212    17.759591116     6.513155125
 C      -30.421277067    18.457477602     4.741265188
 C      -30.487288267    16.085476494     5.532359929
 H      -16.978831096    16.706042943     1.758630209
 C      -16.255041782    16.830597072     3.801589222
 C      -14.994403487    15.830985737     1.879465169
 H      -16.607531341    13.368796322     0.600369169
 C      -18.521958391    12.416571525     0.996652313
 C      -18.219710777    14.651565253    -0.085877804
 H       -2.139713318    13.616150013    -0.379851165
 C       -3.521035477    15.103234488     0.389573122
 C       -2.349443083    13.372293635     1.770052539
 H       -5.307684040    13.805304138    -1.820896489
 C       -3.737365829    12.787372245    -2.924226671
 C       -5.966736802    11.802446149    -2.344863897
 H       -0.084004279    -1.932540439    -1.519456958
 C       -2.119059992    -1.178306877    -1.576301511
 C       -0.194196325    -0.221906738    -2.855134885
 H       -1.782100730    -0.903135133     1.442501977
 C       -0.193172245    -2.367091563     1.640687038
 C       -0.300274632    -0.173555747     2.849135195
 H      -31.374286810    20.048678859     7.599021732
 H      -30.506686044    21.334604040     8.424808536
 H      -30.749544280    19.796357115     9.239438637
 H      -27.043870506    19.946900614     8.268489105
 H      -28.145928622    19.755717778     9.643361812
 H      -28.055941162    21.288618369     8.785585162
 H      -30.502290742    19.527213648     4.971910452
 H      -31.257877065    18.225860212     4.065918785
 H      -29.504632186    18.306532791     4.153859090
 H      -30.613939425    15.372929651     6.357531839
 H      -29.572558421    15.806701723     4.989576595
 H      -31.322281150    15.904948218     4.840277101
 H      -17.220565385    17.067977299     4.270566767
 H      -15.754858554    17.793914757     3.627021594
 H      -15.646530481    16.297587976     4.544824915
 H      -15.016467164    15.364434801     0.886153873
 H      -14.350292617    15.214487015     2.522959344
 H      -14.475871417    16.792447436     1.755213633
 H      -18.154643731    11.643863591     1.685725973
 H      -18.565836148    11.948881474     0.003010310
 H      -19.561711067    12.638499314     1.278171466
 H      -17.592802454    15.536594826    -0.252985597
 H      -19.230122920    14.997894625     0.173809752
 H      -18.310613059    14.152884030    -1.061981963
 H       -3.906845263    15.420812260    -0.587348149
 H       -2.725464067    15.815813087     0.651138214
 H       -4.319673842    15.250715824     1.130331578
 H       -1.876051129    12.382781743     1.834711301
 H       -3.083580089    13.440064719     2.586347100
 H       -1.563838941    14.105487319     2.000262134
 H       -2.953764328    13.524916066    -2.708822731
 H       -4.144555847    13.051904585    -3.910815472
 H       -3.251503982    11.808691825    -3.046858054
 H       -6.837837110    11.777305351    -1.675923210
 H       -5.607673206    10.769621469    -2.460908980
 H       -6.343637804    12.108518118    -3.330918067
 H       -2.482684036    -1.750924775    -0.713825987
 H       -2.387188275    -1.764254522    -2.467638289
 H       -2.702576794    -0.248892706    -1.636108314
 H        0.889295699    -0.077915491    -2.955250225
 H       -0.672543302     0.761007131    -2.974387085
 H       -0.505324710    -0.822379412    -3.721929844
 H       -0.474389795    -2.972513203     0.769353355
 H       -0.657819772    -2.849832042     2.512752782
 H        0.891859610    -2.463717130     1.778978344
 H       -0.652594175     0.867610310     2.875013701
 H        0.778424564    -0.162871670     3.054096872
 H       -0.772639282    -0.678457884     3.703785521

