187   

Si        0.000000000     0.000000000     0.000000000
 C        1.865333703     0.000000000     0.000000000
 C       -0.670496009     1.714619142     0.000000000
 C        0.122242918     2.795394919    -0.399549289
 C       -0.392063370     4.091748253    -0.397125868
 C       -1.709708226     4.337115663    -0.001828247
 C       -2.504391699     3.252555724     0.392868816
 C       -1.993792120     1.957367339     0.391863748
 C       -2.289691462     5.675932080     0.016474085
 C       -1.637689058     6.796783922    -0.336271771
 C       -2.216619861     8.136095392    -0.318372586
 C       -3.534817320     8.382007521     0.077034929
 C       -4.047527571     9.678308785     0.078948525
 C       -3.248023514    10.758938986    -0.309586328
 C       -1.927556583    10.516387334    -0.706902447
 C       -1.421002410     9.219040523    -0.714143588
Si       -3.920966879    12.471560337    -0.308466450
 C       -2.545544759    13.673275956    -0.332943416
 C       -2.419513502    14.712740864    -1.168351605
 C       -1.294397137    15.648550253    -1.146048094
 C       -1.266966897    16.702839449    -2.070223855
 C       -0.224536630    17.614538548    -2.089600336
 C        0.870710362    17.466733989    -1.208487852
 C        0.846247359    16.403840718    -0.282854507
 C       -0.231347462    15.529987037    -0.246051587
 N        1.917421663    18.393047483    -1.236806380
 C        2.271037508    19.015298311    -2.521559259
 C        3.045894002    18.179236786    -0.322759516
 C        2.507189029    18.046169634    -3.695250921
 C        3.854419734    17.303379012    -3.659560487
 N        5.069917368    18.134312826    -3.780660352
 C        5.577780864    18.629209977    -2.553120513
 C        5.992967387    17.676079768    -1.600096125
 C        6.499179760    18.088410608    -0.379558891
 C        6.647616488    19.452989382    -0.083999091
 C        6.264988242    20.391995161    -1.043639875
 C        5.745846592    19.992680169    -2.271400292
 C        5.026334516    19.089034206    -4.897846011
 C        7.188604862    19.826891283     1.223733236
 C        7.381236709    21.088023611     1.632842271
Si        8.061111762    21.512165869     3.278598890
 C        7.607488156    20.225765403     4.513399961
 C        6.347902353    19.619024968     4.432103189
 C        5.972056503    18.641337341     5.350844384
 C        6.839426289    18.254294641     6.376855530
 C        8.095768996    18.868013779     6.460538901
 C        8.475942709    19.844182644     5.541861803
 C        6.485757576    17.235084749     7.359473667
 C        5.315222021    16.575471362     7.385887234
 C        4.955157945    15.555614791     8.365134436
 C        5.814709722    15.159186221     9.392751104
 C        5.428220856    14.179391975    10.307271382
 C        4.173559171    13.569884051    10.209207264
 C        3.309818429    13.965568526     9.178773452
 C        3.696034395    14.947451370     8.270867110
Si        3.647402896    12.275083089    11.407614720
 C        5.082957042    11.658221352    12.426514545
 C        2.329350644    12.992798859    12.578466773
 C        2.869745067    10.839374547    10.429196486
 C        9.950186930    21.680825675     3.148155738
 C        7.331339701    23.180392150     3.826123472
 C       -5.060721965    12.698634582    -1.813526583
 C       -4.939085312    12.744320241     1.276160418
 C       -0.624436800    -0.913362146    -1.548496643
 C       -0.653407487    -0.911014318     1.538656469
 H        1.160176531     2.666395399    -0.718696296
 H        0.246933660     4.915858430    -0.709228300
 H       -3.533692170     3.421396978     0.703558038
 H       -2.661583471     1.151479848     0.708770587
 H       -3.331243926     5.718917370     0.347894397
 H       -0.596061885     6.753572541    -0.668026294
 H       -4.174193465     7.557964822     0.387552284
 H       -5.085626482     9.809044993     0.396618888
 H       -1.259814569    11.324297214    -1.023833424
 H       -0.393423092     9.048268951    -1.029414066
 H       -1.787771389    13.477013798     0.444384866
 H       -3.158291641    14.943131751    -1.946787867
 H       -2.088475260    16.820225749    -2.777636428
 H       -0.255767371    18.447214284    -2.785240697
 H        1.665455299    16.255425877     0.412997303
 H       -0.232695992    14.725513187     0.491703535
 H        3.768581390    19.012557808    -0.405712570
 H        3.591763631    17.239523510    -0.509352414
 H        2.677740052    18.182001274     0.719870501
 H        4.770530242    18.543274544    -5.823055470
 H        6.033582382    19.519693207    -5.043307146
 H        4.306967907    19.912404928    -4.768058906
 H        5.922180696    16.615809157    -1.835850965
 H        6.805320591    17.340779490     0.354008283
 H        6.375224285    21.457259023    -0.837300468
 H        5.461731712    20.747457850    -2.998082515
 H        7.420756033    18.956887537     1.856326218
 H        7.153478755    21.945617644     0.983660953
 H        5.624776092    19.883279332     3.652472483
 H        4.989499950    18.180936216     5.263260742
 H        8.785644610    18.581811162     7.252119958
 H        9.467886491    20.288819438     5.658314619
 H        7.258833558    17.028781043     8.105124781
 H        4.542712268    16.783841163     6.639439320
 H        6.798213962    15.615471684     9.488614736
 H        6.143228723    13.911416395    11.090067208
 H        2.317249476    13.523663226     9.052453238
 H        3.010692533    15.242701123     7.478536841
 H        1.442026538    19.716081093    -2.786743756
 H        3.169174771    19.657823180    -2.372657684
 H        1.695867863    17.287622196    -3.720551009
 H        2.409428164    18.604597697    -4.645142998
 H        3.916055561    16.696330635    -2.728520021
 H        3.888642255    16.574676073    -4.505482311
 H        2.263583797    -1.028572708     0.060910476
 H        2.260027607     0.560870917     0.866832072
 H        2.275925075     0.461571614    -0.914959645
 H        4.767534026    10.849254483    13.109500447
 H        5.522674549    12.461434243    13.043305498
 H        5.882212641    11.252854216    11.779767424
 H        2.099506286    12.171782064    13.317626901
 C        2.841325662    14.213790480    13.364597154
 C        1.017659599    13.377053571    11.870924160
 H        1.986895888    11.281177648     9.881421114
 C        3.830079422    10.254181194     9.377985060
 C        2.347667018     9.699344790    11.321467426
 H       10.310789809    21.958491891     4.180805364
 C       10.628432806    20.360204015     2.741614430
 C       10.395200007    22.788833027     2.176861787
 H        7.641996775    23.929816374     3.042067613
 C        5.793169892    23.155331601     3.880013654
 C        7.871887468    23.657403634     5.185313280
 H       -5.353909146    13.788488015    -1.817407381
 C       -4.346300837    12.388554425    -3.141929905
 C       -6.349480724    11.860447976    -1.739422069
 H       -5.785316726    11.999244000     1.234334760
 C       -4.126325764    12.467687148     2.553667260
 C       -5.549218917    14.154135638     1.363959136
 H       -0.148337698    -1.935632530    -1.514981899
 C       -2.152298532    -1.098931309    -1.573604124
 C       -0.189024710    -0.226473359    -2.855884333
 H       -1.778135350    -0.914855219     1.442198809
 C       -0.185156427    -2.374336066     1.630500406
 C       -0.295176680    -0.186837879     2.849048126
 H        3.732824608    14.001674101    13.968661509
 H        2.069704989    14.559958404    14.067216042
 H        3.074328533    15.071419837    12.717122558
 H        0.541660011    12.537694579    11.348380951
 H        1.146443113    14.195609222    11.148791096
 H        0.283936515    13.733545649    12.608680188
 H        4.203048398    11.003984993     8.665637388
 H        3.312818903     9.491968415     8.777743586
 H        4.702599958     9.757443280     9.822488839
 H        1.599540788    10.028241355    12.054265047
 H        3.147361451     9.182634282    11.868426831
 H        1.855637721     8.934516533    10.702858236
 H       10.402486917    19.524539868     3.418324291
 H       11.721205812    20.477943466     2.752123920
 H       10.362855066    20.039929131     1.723558159
 H       10.016887432    23.783134467     2.446332924
 H       10.103044091    22.588571273     1.136601989
 H       11.492067168    22.868920602     2.176437268
 H        5.326746490    22.878102300     2.924985940
 H        5.408578914    24.153829887     4.132445518
 H        5.403843042    22.474026674     4.650475174
 H        8.961075613    23.791499654     5.198919487
 H        7.607574287    22.982449250     6.012146581
 H        7.439219318    24.635883522     5.439990871
 H       -3.431168076    12.976349132    -3.296787456
 H       -5.007860473    12.617066202    -3.989081131
 H       -4.074410680    11.327645656    -3.240892753
 H       -6.970819374    12.092747256    -0.865240593
 H       -6.157004445    10.778370945    -1.738728843
 H       -6.976445658    12.057490215    -2.621191065
 H       -3.692956541    11.458036223     2.583743542
 H       -4.774720083    12.549373148     3.437519902
 H       -3.308188300    13.185382932     2.704262122
 H       -6.215017177    14.393392865     0.524873610
 H       -4.788745473    14.946406408     1.421217071
 H       -6.157472128    14.245504480     2.275039749
 H       -2.535914095    -1.670123131    -0.718793226
 H       -2.447878210    -1.658574794    -2.472998382
 H       -2.697772736    -0.145363164    -1.614308465
 H        0.899489375    -0.127477974    -2.955405198
 H       -0.627503042     0.774388152    -2.978761089
 H       -0.523732124    -0.816688101    -3.720999472
 H       -0.465828415    -2.976560556     0.756815393
 H       -0.647786241    -2.862179114     2.500820587
 H        0.900230529    -2.468931230     1.767367842
 H       -0.647631327     0.854133086     2.880128385
 H        0.783911369    -0.176238563     3.052366232
 H       -0.765614451    -0.696003095     3.702200301

