187   

Si        0.000000000     0.000000000     0.000000000
 C        1.864506690     0.000000000     0.000000000
 C       -0.655469287     1.722175870     0.000000000
 C       -0.047894073     2.683599118    -0.817116654
 C       -0.519035092     3.994753487    -0.840527535
 C       -1.642923681     4.365504145    -0.095452294
 C       -2.254190282     3.402143691     0.715970803
 C       -1.753517321     2.103292792     0.779320802
 C       -2.165167816     5.728802366    -0.095235528
 C       -1.628244175     6.741383709    -0.796805284
 C       -2.128199224     8.111000835    -0.815336680
 C       -1.453580622     9.054116438    -1.601205883
 C       -1.887000774    10.376012754    -1.656359151
 C       -3.034018816    10.778271777    -0.961788647
 C       -3.722968217     9.831298466    -0.194469714
 C       -3.274573933     8.512626446    -0.123865929
Si       -3.625580765    12.521125147    -1.020406674
 C       -5.347532627    12.581296868    -1.627111470
 C       -6.363104222    13.233209251    -1.047402916
 C       -7.730982217    13.253232694    -1.571599238
 C       -8.707135888    13.975798645    -0.868449174
 C      -10.016707208    14.029855261    -1.317241528
 C      -10.392712794    13.328119807    -2.478537424
 C       -9.423524122    12.597934848    -3.181442209
 C       -8.107779368    12.571198537    -2.731499006
 N      -11.748344748    13.422273184    -2.888135246
 C      -12.740224773    12.916377827    -1.921836682
 C      -12.028140109    13.027831819    -4.276141381
 C      -12.467922690    11.503834403    -1.371563514
 C      -13.549144087    10.458541663    -1.697752733
 N      -13.415228877     9.722494573    -2.969712364
 C      -12.114995422     9.301994495    -3.314156184
 C      -11.323770696     8.693716372    -2.314947166
 C      -10.041330232     8.264728656    -2.605823402
 C       -9.498796456     8.421424912    -3.891443341
 C      -10.292004837     8.999166005    -4.883193377
 C      -11.592715223     9.413837793    -4.613648358
 C      -14.270287863    10.202157222    -4.063153074
 C       -8.136479655     7.945408735    -4.130619519
 C       -7.489500090     8.026871604    -5.301404950
Si       -5.780026461     7.401703320    -5.505790242
 C       -5.526486802     5.990951726    -4.350356690
 C       -6.521293726     5.004935199    -4.299405396
 C       -6.392216688     3.911418278    -3.447336560
 C       -5.264821113     3.772520613    -2.631838417
 C       -4.270997819     4.756540519    -2.687510655
 C       -4.397787182     5.854349266    -3.536782802
 C       -5.094359754     2.641249763    -1.726843192
 C       -5.979271680     1.638815697    -1.588458295
 C       -5.813557669     0.505902283    -0.685348306
 C       -4.689432849     0.368555978     0.131284286
 C       -4.554187548    -0.723290914     0.985989757
 C       -5.540052330    -1.713158535     1.033760708
 C       -6.666684042    -1.583510994     0.210658508
 C       -6.800116819    -0.487882176    -0.638816365
Si       -5.358254017    -3.153601426     2.163562102
 C       -4.062159501    -2.827287902     3.466558710
 C       -7.039878946    -3.515556515     2.973961379
 C       -4.827891856    -4.670222660     1.142485203
 C       -5.508567888     6.839406201    -7.299184325
 C       -4.558415539     8.802628556    -5.112126794
 C       -3.441613795    13.310305052     0.699536514
 C       -2.581057189    13.537120792    -2.251640771
 C       -0.633397196    -0.884621544    -1.564481853
 C       -0.658549552    -0.956453819     1.508158545
 H        0.814781224     2.448658023    -1.447083284
 H       -0.010606700     4.727775317    -1.464272682
 H       -3.122704316     3.671263136     1.315636485
 H       -2.247314309     1.405108625     1.462529734
 H       -3.047985416     5.886551174     0.530796292
 H       -0.743109066     6.574735994    -1.419306963
 H       -0.571688061     8.757569935    -2.165481314
 H       -1.300848064    11.069938746    -2.265063500
 H       -4.635008555    10.084832951     0.356129020
 H       -3.829845837     7.793103240     0.475412923
 H       -5.497976449    12.012417858    -2.561559703
 H       -6.247381250    13.810292428    -0.121076866
 H       -8.432512881    14.513062331     0.038769388
 H      -10.758240570    14.614009939    -0.778339442
 H       -9.693816000    12.025313635    -4.065348705
 H       -7.371331516    11.990451803    -3.290020531
 H      -13.026699303    13.415481349    -4.544738349
 H      -11.992341614    11.940189346    -4.449999159
 H      -11.302452680    13.514771689    -4.952174529
 H      -14.457241692     9.363605259    -4.759148336
 H      -13.847243985    11.047258690    -4.630555001
 H      -15.243993099    10.529247052    -3.665976510
 H      -11.728545479     8.553865366    -1.316196510
 H       -9.442897964     7.798008333    -1.821177249
 H       -9.897136678     9.121301744    -5.892497135
 H      -12.187326096     9.830985012    -5.418950090
 H       -7.681211075     7.493634496    -3.234853888
 H       -7.946135520     8.485995833    -6.187222349
 H       -7.428166896     5.061308362    -4.911089619
 H       -7.180893127     3.162244407    -3.422801252
 H       -3.382254445     4.664734114    -2.061927920
 H       -3.588961306     6.590485521    -3.535337978
 H       -4.164383573     2.655065780    -1.146871965
 H       -6.904182080     1.627190473    -2.171330236
 H       -3.908109858     1.128125364     0.104201782
 H       -3.659584686    -0.765029476     1.615433736
 H       -7.468633350    -2.326190634     0.206201442
 H       -7.682336006    -0.404318317    -1.269873452
 H      -12.766622198    13.645792010    -1.077850872
 H      -13.745133364    12.966324663    -2.394917462
 H      -11.477045915    11.147687218    -1.728921491
 H      -12.350149090    11.559392413    -0.271842214
 H      -13.548704984     9.680672311    -0.892456922
 H      -14.556537770    10.927480387    -1.655082772
 H        2.264139951    -1.028903779     0.035262851
 H        2.259440747     0.540168324     0.879615656
 H        2.276770495     0.486305247    -0.900878682
 H       -3.976400696    -3.679976604     4.163020488
 H       -4.318905767    -1.934554896     4.065082119
 H       -3.065111889    -2.659321441     3.020930988
 H       -7.748609249    -3.748670417     2.126605258
 C       -7.017841679    -4.732019638     3.916573682
 C       -7.600920359    -2.300679552     3.735204856
 H       -4.664189662    -5.500122127     1.888626033
 C       -5.897060710    -5.135411236     0.137937656
 C       -3.507356301    -4.440378082     0.384542336
 H       -5.668591304     7.754882526    -7.938969321
 C       -4.082008315     6.320909782    -7.554890624
 C       -6.516304831     5.765446962    -7.747113607
 H       -3.528837763     8.349549159    -5.201984110
 C       -4.643027805     9.990075851    -6.088423883
 C       -4.727690660     9.331867788    -3.678903612
 H       -3.853928543    14.356695409     0.600157651
 C       -4.244052156    12.586421428     1.795662410
 C       -1.974436012    13.416256650     1.154032361
 H       -1.504384533    13.366829944    -1.962649128
 C       -2.768617999    13.081939263    -3.711053360
 C       -2.859573165    15.049001190    -2.171821090
 H       -0.164163351    -1.910354781    -1.541311141
 C       -2.160853930    -1.057673206    -1.601342549
 C       -0.190294255    -0.185686700    -2.862892164
 H       -1.785816654    -0.895856312     1.443044364
 C       -0.272732712    -2.446831210     1.502544992
 C       -0.226372596    -0.337327904     2.849239627
 H       -6.694235356    -5.658030835     3.423964315
 H       -8.029598632    -4.926548525     4.301505326
 H       -6.379074969    -4.580362400     4.796755575
 H       -7.698445215    -1.403117022     3.107708644
 H       -6.998477436    -2.027480330     4.611615804
 H       -8.609862768    -2.523725944     4.110587362
 H       -6.849661345    -5.407813425     0.609531874
 H       -5.550021232    -6.035008086    -0.390855217
 H       -6.107835052    -4.386435926    -0.638732663
 H       -2.670037736    -4.165602650     1.039569888
 H       -3.592097813    -3.666486436    -0.392671483
 H       -3.204473796    -5.362386000    -0.131682808
 H       -3.303180019     7.064297370    -7.341695046
 H       -3.964507059     6.047294956    -8.613104075
 H       -3.846216905     5.415903818    -6.976407022
 H       -7.563986429     6.073590113    -7.630525958
 H       -6.387242246     4.812363619    -7.214145614
 H       -6.377742887     5.540531724    -8.814018943
 H       -4.439709436     9.712679924    -7.129771333
 H       -3.892333061    10.748108625    -5.820561714
 H       -5.617240007    10.497598770    -6.059778529
 H       -4.638992063     8.558030844    -2.902347578
 H       -5.687137202     9.843864333    -3.519333785
 H       -3.934488165    10.060938953    -3.458895816
 H       -5.307972757    12.460135212     1.554011097
 H       -4.206843024    13.163246319     2.730805412
 H       -3.836188532    11.593644487     2.033343085
 H       -1.346407004    14.003868878     0.472139144
 H       -1.495081547    12.435680440     1.285626755
 H       -1.918291428    13.917528347     2.131136734
 H       -2.590913001    12.009912976    -3.869435223
 H       -2.059024123    13.610566820    -4.363260693
 H       -3.771833477    13.310732921    -4.098923381
 H       -2.644415447    15.480545916    -1.185968813
 H       -3.896213654    15.308378784    -2.430569356
 H       -2.221169517    15.587547152    -2.886784310
 H       -2.567624556    -1.596183484    -0.734556923
 H       -2.455072206    -1.639655872    -2.486458117
 H       -2.700060853    -0.101461054    -1.676530409
 H        0.897405729    -0.083958669    -2.958158673
 H       -0.634819301     0.813551843    -2.981238487
 H       -0.520266020    -0.770299986    -3.734117964
 H       -0.624769246    -2.982223891     0.610341396
 H       -0.724848181    -2.956037032     2.366295924
 H        0.809509823    -2.611027422     1.583894882
 H       -0.491541951     0.724085708     2.949931511
 H        0.853522202    -0.422021037     3.029704241
 H       -0.719239903    -0.858635813     3.682323162

