187   

Si        0.000000000     0.000000000     0.000000000
 C        1.866127535     0.000000000     0.000000000
 C       -0.635070631     1.728470590     0.000000000
 C       -0.071565892     2.665824006    -0.873468927
 C       -0.531682579     3.980908028    -0.895662379
 C       -1.561454029     4.392952202    -0.044802980
 C       -2.129056729     3.452358181     0.823336398
 C       -1.678503215     2.134226818     0.840006983
 C       -2.074013497     5.759424772    -0.034482112
 C       -1.616569450     6.742793448    -0.827424601
 C       -2.113668411     8.113664872    -0.833644016
 C       -1.531503083     9.028192523    -1.722901836
 C       -1.966795308    10.348789134    -1.771101883
 C       -3.007709596    10.785111775    -0.939993080
 C       -3.589655540     9.875082463    -0.052719852
 C       -3.141228097     8.554817252     0.003925152
Si       -3.556145576    12.538271314    -1.031775162
 C       -5.094446546    12.813629194    -0.080970317
 C       -5.254550972    13.796470527     0.815603473
 C       -6.476108933    14.033269179     1.585795349
 C       -6.499945837    15.104298845     2.492251486
 C       -7.628225792    15.375626029     3.247609462
 C       -8.771054228    14.558715450     3.131493686
 C       -8.759992230    13.504279431     2.207155424
 C       -7.636073079    13.273917747     1.420791939
 N       -9.898764034    14.882153554     3.928642848
 C       -9.645834941    14.944171713     5.383617922
 C      -11.144693792    14.169924503     3.596982650
 C       -9.358844499    13.589506582     6.059302177
 C       -7.850488223    13.276380210     6.138003525
 N       -7.506563923    11.835530820     6.144087490
 C       -7.673593924    11.260891808     4.837125024
 C       -6.549673965    11.307632638     3.997936306
 C       -6.621816007    10.776203796     2.719145458
 C       -7.807243049    10.188028296     2.251747370
 C       -8.914176189    10.133094523     3.102205939
 C       -8.850235269    10.650632662     4.392239392
 C       -8.175626511    11.082075524     7.219483727
 C       -7.837021449     9.639012093     0.892265239
 C       -8.918487927     9.059176117     0.356767956
Si       -9.041809634     8.350499946    -1.325286142
 C       -7.418338753     7.708770229    -1.899570813
 C       -6.347491826     8.592740890    -2.093273121
 C       -5.112632018     8.122564301    -2.527550526
 C       -4.913642539     6.760532572    -2.785603006
 C       -5.978858983     5.879684709    -2.588996419
 C       -7.215153194     6.347784890    -2.144732158
 C       -3.600723278     6.318526672    -3.238867784
 C       -3.275068549     5.044286024    -3.512101628
 C       -1.959105869     4.609562025    -3.965270153
 C       -0.896664290     5.496416046    -4.160218433
 C        0.345910407     5.036364417    -4.594959558
 C        0.551166942     3.676164918    -4.846239337
 C       -0.512317750     2.786202826    -4.649162730
 C       -1.750345911     3.246314895    -4.211484837
Si        2.183842465     3.050133535    -5.420476907
 C        3.259118598     4.433494590    -6.060788317
 C        2.982458354     2.213846681    -3.906574696
 C        1.990738407     1.768640940    -6.814861722
 C      -10.397136187     7.013678378    -1.238459013
 C       -9.676680952     9.696687004    -2.519958222
 C       -2.166504775    13.666907235    -0.391885890
 C       -3.922483327    12.949567448    -2.854583762
 C       -0.639451918    -0.888257610    -1.558311683
 C       -0.654290646    -0.942088294     1.518707108
 H        0.736366528     2.404025973    -1.564986839
 H       -0.085430385     4.685482108    -1.598015365
 H       -2.936707118     3.749820900     1.489529634
 H       -2.168765191     1.444454138     1.531384555
 H       -2.886412933     5.943585937     0.674149174
 H       -0.807366178     6.545916819    -1.538542170
 H       -0.724743394     8.706349814    -2.378290470
 H       -1.472123092    11.015449874    -2.482850989
 H       -4.402000594    10.162034652     0.622211995
 H       -3.610475095     7.863236144     0.702594553
 H       -5.909678046    12.110017934    -0.312809645
 H       -4.458225544    14.514240970     1.057172572
 H       -5.618148979    15.734667351     2.607192956
 H       -7.639921366    16.227245969     3.923227507
 H       -9.619791833    12.849446410     2.096885423
 H       -7.662526291    12.463206635     0.688612546
 H      -11.973512200    14.602861396     4.182533443
 H      -11.113548849    13.085272612     3.787239472
 H      -11.380098457    14.334943204     2.529867571
 H       -7.839291230    11.489162458     8.188712714
 H       -7.850072158    10.027905828     7.172276312
 H       -9.274300028    11.107635832     7.194077858
 H       -5.630995487    11.768200906     4.361130139
 H       -5.743913629    10.825180810     2.072193162
 H       -9.842202385     9.672196970     2.764903672
 H       -9.715550548    10.581038498     5.044061188
 H       -6.879192636     9.725931453     0.361790302
 H       -9.860011489     8.986717028     0.926119659
 H       -6.433795936     9.667408221    -1.900389798
 H       -4.285390586     8.822421627    -2.657493629
 H       -5.849099789     4.815140362    -2.773987193
 H       -8.005748448     5.605770099    -2.002111398
 H       -2.862565650     7.120512538    -3.346664244
 H       -4.009036984     4.242487246    -3.394258651
 H       -1.036183724     6.561290627    -3.983053450
 H        1.137202313     5.777563502    -4.733518982
 H       -0.412299134     1.712868019    -4.838501887
 H       -2.561510557     2.537634872    -4.055584434
 H       -8.808715733    15.653976320     5.566251650
 H      -10.543722353    15.412908274     5.849286733
 H       -9.793943538    13.580877795     7.074402890
 H       -9.879448732    12.783686555     5.507060670
 H       -7.315421359    13.743092944     5.276767525
 H       -7.412754985    13.721472955     7.058067329
 H        2.266319104    -1.028607200    -0.002648180
 H        2.257541208     0.509309935     0.899518966
 H        2.274764655     0.523559122    -0.882872682
 H        4.227058469     4.049661162    -6.428706517
 H        3.477894093     5.173435267    -5.270516206
 H        2.773217044     4.967131094    -6.896841941
 H        2.244987073     1.423567027    -3.576472665
 C        4.318497263     1.517376082    -4.217327690
 C        3.190257859     3.186463376    -2.731665309
 H        3.029560451     1.639722664    -7.238535154
 C        1.497382934     0.380975337    -6.367221152
 C        1.075771940     2.275189622    -7.945102298
 H      -11.326061686     7.564310613    -0.903678596
 C      -10.712531376     6.355361385    -2.592235727
 C      -10.111407919     5.921147646    -0.192731313
 H       -9.768026165     9.186094361    -3.522191863
 C      -11.066745296    10.230496350    -2.124944348
 C       -8.726462784    10.895869252    -2.683289433
 H       -2.601703555    14.708110887    -0.365475914
 C       -1.724916978    13.293678897     1.035487303
 C       -0.923991358    13.702473983    -1.298901835
 H       -2.959422564    12.767687814    -3.412728687
 C       -5.003707129    12.038052465    -3.462215102
 C       -4.327908370    14.418145118    -3.068238614
 H       -0.354506683    -1.972265028    -1.434705585
 C       -2.169941016    -0.807159825    -1.703912399
 C        0.009242903    -0.371635621    -2.854476859
 H       -1.778271062    -0.843719427     1.484186801
 C       -0.316884783    -2.444522875     1.504948478
 C       -0.163549876    -0.339565222     2.848296880
 H        4.243355680     0.757757023    -5.005847560
 H        4.687540184     0.996134590    -3.321951223
 H        5.109490908     2.220282856    -4.510283176
 H        2.277110270     3.726804666    -2.441716501
 H        3.966176815     3.937107494    -2.930696395
 H        3.517745527     2.633861636    -1.838823152
 H        2.103888077    -0.063294417    -5.567747888
 H        1.542941982    -0.321098371    -7.212564123
 H        0.451289358     0.385200082    -6.032496880
 H        1.414005391     3.220014482    -8.390595623
 H        0.034772852     2.418261014    -7.620740890
 H        1.046219287     1.543417430    -8.764803112
 H      -11.045165314     7.072175849    -3.354764251
 H      -11.530598295     5.629642478    -2.476560065
 H       -9.866098779     5.797158000    -3.014502269
 H       -9.922953591     6.320525803     0.813696849
 H       -9.256673361     5.282394669    -0.453008536
 H      -10.978276463     5.251418343    -0.101480828
 H      -11.838713138     9.452875517    -2.073085717
 H      -11.418873496    10.952009841    -2.876599637
 H      -11.060377813    10.765639718    -1.164889646
 H       -7.775650039    10.625201136    -3.162949717
 H       -8.503774235    11.404444943    -1.734702654
 H       -9.184956479    11.653089472    -3.335800336
 H       -2.547333246    13.288585387     1.764471380
 H       -0.987925655    14.020288362     1.405093502
 H       -1.237328568    12.309195053     1.085809307
 H       -1.141805717    14.015912942    -2.327670112
 H       -0.399293224    12.738035354    -1.342873462
 H       -0.194741270    14.426702086    -0.906606241
 H       -4.761700095    10.967878477    -3.391090488
 H       -5.116881537    12.252533105    -4.534524383
 H       -5.994149042    12.192544085    -3.011434562
 H       -3.565773448    15.134419837    -2.735709645
 H       -5.270653978    14.679388384    -2.566053858
 H       -4.485225272    14.614296647    -4.138448715
 H       -2.712180963    -1.236130706    -0.851930701
 H       -2.495748656    -1.370893469    -2.589342077
 H       -2.530884901     0.222822393    -1.841922038
 H        1.098607073    -0.505126833    -2.875738703
 H       -0.206221410     0.692155153    -3.037970605
 H       -0.385031075    -0.922692055    -3.719859182
 H       -0.726584583    -2.973644885     0.635108858
 H       -0.747903897    -2.933662210     2.390683911
 H        0.762356168    -2.642813913     1.540004527
 H       -0.378652237     0.733235153     2.951271452
 H        0.915511974    -0.473842198     3.003309612
 H       -0.661354411    -0.835702060     3.693526463

