187   

Si        0.000000000     0.000000000     0.000000000
 C        1.865181405     0.000000000     0.000000000
 C       -0.677694746     1.711668603     0.000000000
 C        0.114038685     2.798495887     0.384839116
 C       -0.407124789     4.092174985     0.382016902
 C       -1.730451983     4.328599873     0.000681416
 C       -2.523896135     3.238032486    -0.379795078
 C       -2.006489095     1.945614557    -0.378545956
 C       -2.318245423     5.664010009    -0.017680189
 C       -1.669198479     6.790704568     0.321875800
 C       -2.257090805     8.126054471     0.303476138
 C       -3.580677286     8.361382192    -0.078074417
 C       -4.102444473     9.654691835    -0.081129185
 C       -3.314113941    10.739971750     0.314024193
 C       -1.987184709    10.506898219     0.699987990
 C       -1.465592514     9.216270711     0.689204512
Si       -3.973599851    12.457252696     0.320777656
 C       -3.269856812    13.446896494     1.688140311
 C       -2.879213230    12.931058879     2.861520686
 C       -2.315354792    13.716767494     3.959898766
 C       -1.943669105    13.059510402     5.141086784
 C       -1.405227264    13.756365367     6.210741565
 C       -1.267207942    15.160047592     6.154986198
 C       -1.642611910    15.820082760     4.969180717
 C       -2.134773283    15.100630298     3.887899975
 N       -0.719253281    15.862432004     7.245365511
 C       -0.917593081    15.279688902     8.584944117
 C       -0.876226846    17.327234026     7.238329899
 C       -2.396972360    15.193321061     8.993604893
 C       -2.554936537    14.365076214    10.278844110
 N       -3.957375820    14.238182893    10.714416196
 C       -4.622470116    15.423881524    11.079958845
 C       -3.904863678    16.475673863    11.689232052
 C       -4.548755905    17.647263749    12.053321447
 C       -5.930423454    17.802757656    11.873673455
 C       -6.645038543    16.748171579    11.299035833
 C       -6.012308928    15.573706553    10.913059767
 C       -4.715780111    13.273549172     9.899175267
 C       -6.561100661    19.061384452    12.275547935
 C       -7.869582367    19.317672592    12.149837420
Si       -8.711660339    20.866185167    12.632638273
 C      -10.182093985    20.475092367    13.666352443
 C      -10.284921622    19.236452745    14.308163541
 C      -11.398168961    18.936776841    15.092461178
 C      -12.425354417    19.869290271    15.261272695
 C      -12.316558657    21.111532190    14.621895692
 C      -11.208714159    21.412833697    13.834075016
 C      -13.607787065    19.598711941    16.072411511
 C      -13.833845830    18.451923659    16.735499203
 C      -15.015664539    18.179896233    17.546954294
 C      -16.046385102    19.108272466    17.713913416
 C      -17.158751682    18.805646912    18.499292762
 C      -17.261537006    17.566686649    19.139395017
 C      -16.228987951    16.633543805    18.973459151
 C      -15.122408421    16.936863345    18.185378740
Si      -18.722213663    17.150481974    20.179516158
 C      -19.774751549    18.652718991    20.519478439
 C      -19.789459057    15.850098507    19.288885330
 C      -18.092035961    16.403209580    21.812893175
 C       -7.547162921    22.009014974    13.609310151
 C       -9.272459106    21.767998949    11.053524277
 C       -3.513552952    13.293892477    -1.324617108
 C       -5.868661719    12.439318296     0.486802578
 C       -0.651419911    -0.909338317    -1.540632813
 C       -0.622398358    -0.917837058     1.546804804
 H        1.156332093     2.676324567     0.692321832
 H        0.231085040     4.921279464     0.682295816
 H       -3.557433781     3.399998590    -0.679940722
 H       -2.673404170     1.134798590    -0.684657531
 H       -3.363676107     5.699082899    -0.337827288
 H       -0.623508047     6.755687453     0.641557595
 H       -4.217137836     7.532370194    -0.381306221
 H       -5.141842612     9.776469739    -0.397626876
 H       -1.324650801    11.319472904     1.017767924
 H       -0.431460846     9.054856270     0.987932543
 H       -3.201298286    14.526309854     1.486745796
 H       -2.946264608    11.857308263     3.089010294
 H       -2.067203676    11.978244412     5.218157325
 H       -1.095299583    13.208638628     7.095736788
 H       -1.544947372    16.897144294     4.878714909
 H       -2.400380916    15.635858222     2.974984567
 H       -0.418624259    17.759565269     8.144041473
 H       -1.927890325    17.654876823     7.191057072
 H       -0.329564939    17.747445017     6.374838427
 H       -4.091165681    12.389780015     9.684979334
 H       -5.068097932    13.688495426     8.940293481
 H       -5.586592805    12.914830758    10.477123123
 H       -2.839021689    16.377265420    11.872887909
 H       -3.968897958    18.454831108    12.501376847
 H       -7.722197803    16.840648359    11.147995956
 H       -6.607278505    14.781504279    10.469726078
 H       -5.851609227    19.783786231    12.699589556
 H       -8.554066469    18.571364038    11.712372131
 H       -9.508870445    18.469126528    14.217064593
 H      -11.458360938    17.964114555    15.577465282
 H      -13.105843350    21.851199053    14.740600161
 H      -11.179096423    22.396618562    13.358013873
 H      -14.332395963    20.417124807    16.112903805
 H      -13.108935658    17.633443264    16.695110887
 H      -15.989057519    20.080978539    17.228879105
 H      -17.933074729    19.572157933    18.591998678
 H      -16.254842248    15.649486381    19.450105959
 H      -14.331333991    16.198703911    18.067195645
 H       -0.442733611    14.271810722     8.601545840
 H       -0.345956649    15.889301863     9.320752031
 H       -2.817779092    16.206977796     9.136616672
 H       -2.993156024    14.742772995     8.175350078
 H       -2.142110309    13.340373132    10.135471877
 H       -1.963559790    14.811732040    11.110039285
 H        2.263070563    -1.028773293    -0.060248721
 H        2.276175738     0.462250343     0.914444920
 H        2.259913907     0.559951460    -0.867422713
 H      -20.621560730    18.403180809    21.183494047
 H      -20.194570271    19.076446059    19.590394626
 H      -19.186232825    19.445172054    21.016550773
 H      -20.695468487    15.700230818    19.944661472
 C      -20.274052489    16.331192980    17.908741351
 C      -19.094051968    14.487652192    19.118899255
 H      -17.499145282    15.486769762    21.524558715
 C      -17.147870180    17.354603780    22.570224532
 C      -19.219765487    15.956495883    22.759988765
 H       -6.624147934    22.129062420    12.971273747
 C       -8.134614025    23.408837327    13.863197998
 C       -7.123512766    21.399486439    14.958319729
 H       -9.754436638    22.728194539    11.398307751
 C       -8.104080634    22.129702607    10.119796278
 C      -10.321417502    20.969138691    10.259723869
 H       -3.944349625    14.335424563    -1.276266542
 C       -1.990506819    13.414727332    -1.511653525
 C       -4.113422362    12.584477925    -2.550962300
 H       -6.254836623    11.854581506    -0.397415686
 C       -6.335938619    11.731261756     1.771287890
 C       -6.495346773    13.844196754     0.436234124
 H       -1.776081710    -0.917579561    -1.443355231
 C       -0.297265220    -0.180044748    -2.849269991
 C       -0.177954104    -2.370639682    -1.637024240
 H       -0.140365479    -1.937386301     1.513087480
 C       -0.192553788    -0.229615075     2.855348488
 C       -2.149134442    -1.112338832     1.570017101
 H      -20.858641251    17.259205013    17.950441240
 H      -20.930803515    15.574915341    17.455448869
 H      -19.450312843    16.488783312    17.197625347
 H      -18.776617079    14.037675029    20.068022693
 H      -18.217367298    14.536499556    18.457786664
 H      -19.785794826    13.768845277    18.655877557
 H      -16.283033280    17.674710293    21.971455472
 H      -16.737289189    16.851258680    23.457148452
 H      -17.651620352    18.259881272    22.934011084
 H      -19.897416342    15.218477674    22.311719608
 H      -19.830356024    16.793449973    23.123885184
 H      -18.791996179    15.477794545    23.652990647
 H       -8.371096498    23.955913416    12.941827987
 H       -7.407196145    24.027910305    14.408375092
 H       -9.041142551    23.386571105    14.484381256
 H       -6.658481908    20.408288571    14.867257141
 H       -7.962098578    21.303530711    15.663353471
 H       -6.381718659    22.045355090    15.448554366
 H       -7.353947279    22.777059010    10.591884019
 H       -8.477908748    22.679631336     9.244382254
 H       -7.581113991    21.245865117     9.727068038
 H      -11.211394703    20.711354509    10.851176516
 H       -9.921132281    20.036772068     9.838434871
 H      -10.681472372    21.562629568     9.407383734
 H       -1.492711297    13.961304312    -0.698978483
 H       -1.766538730    13.965437020    -2.436226351
 H       -1.493670948    12.438511853    -1.608417696
 H       -5.210156607    12.546822125    -2.539402251
 H       -3.744562009    11.556008701    -2.674119612
 H       -3.834705692    13.120609482    -3.469772282
 H       -5.976250671    10.696503895     1.856221099
 H       -7.433399056    11.678960512     1.796082002
 H       -6.031497816    12.261759552     2.685320698
 H       -6.274084020    14.387206715    -0.491417878
 H       -6.188452576    14.479566998     1.278920930
 H       -7.590927752    13.768816902     0.492694135
 H       -0.655517105     0.859035195    -2.877652028
 H       -0.764949734    -0.689488572    -3.703755482
 H        0.781688145    -0.162936389    -3.052786887
 H       -0.459603207    -2.977381602    -0.766762931
 H        0.908135578    -2.461311450    -1.770822641
 H       -0.636057640    -2.856335349    -2.510945793
 H        0.895306317    -0.125272471     2.956764845
 H       -0.525820076    -0.822175938     3.719463926
 H       -0.636153802     0.768951715     2.978204074
 H       -2.528660901    -1.682785374     0.712873510
 H       -2.700122107    -0.162125738     1.613534484
 H       -2.442251773    -1.676922323     2.467145934

