187   

Si        0.000000000     0.000000000     0.000000000
 C        1.865266597     0.000000000     0.000000000
 C       -0.662212774     1.718467077     0.000000000
 C        0.127167237     2.792182687     0.425294938
 C       -0.380421621     4.091106428     0.422803740
 C       -1.689692395     4.345467268     0.005687669
 C       -2.480961029     3.268103192    -0.414718582
 C       -1.975551984     1.970984307    -0.417623798
 C       -2.265127770     5.685502058    -0.014713631
 C       -1.620154630     6.804906648     0.355875115
 C       -2.205827320     8.141247054     0.331458467
 C       -1.428577936     9.231533859     0.743735042
 C       -1.950530286    10.523161140     0.735329807
 C       -3.267344992    10.752584659     0.319799847
 C       -4.045503856     9.664468335    -0.092077025
 C       -3.518165983     8.374545134    -0.088509778
Si       -3.992846469    12.446309305     0.294890037
 C       -5.808870193    12.248773287     0.291337362
 C       -6.715883746    12.812012939    -0.516413939
 C       -8.155180151    12.555843241    -0.397934998
 C       -9.043085130    13.184729819    -1.283054484
 C      -10.408885034    12.965878466    -1.200138626
 C      -10.940924345    12.154527914    -0.178524052
 C      -10.056961017    11.531123277     0.714983821
 C       -8.685086021    11.717233031     0.585585065
 N      -12.344915753    11.958997934    -0.133403331
 C      -13.149996770    13.193717880    -0.096562969
 C      -12.830292189    10.939601321     0.812217198
 C      -12.977580452    14.022511152     1.192591230
 C      -13.683456713    15.388316589     1.084086706
 N      -12.804801660    16.516757828     0.697862838
 C      -12.133676927    16.315404207    -0.538729871
 C      -12.927335085    16.121483026    -1.687274141
 C      -12.329123628    15.920353730    -2.920364176
 C      -10.933993591    15.959859006    -3.059205292
 C      -10.153658087    16.187813299    -1.923042854
 C      -10.739634436    16.372839232    -0.675902762
 C      -11.960310734    16.972448821     1.816861044
 C      -10.350466022    15.740962888    -4.384210214
 C       -9.033891687    15.757752224    -4.625510636
Si       -8.231940018    15.494250751    -6.245586039
 C       -6.915849191    14.231165426    -6.011870311
 C       -7.061386354    13.246589195    -5.027777271
 C       -6.071449760    12.283344939    -4.840143634
 C       -4.925932519    12.274312154    -5.641222045
 C       -4.790248704    13.253647077    -6.634337035
 C       -5.775522745    14.219147633    -6.822775339
 C       -3.860424010    11.290952108    -5.488460192
 C       -3.846321868    10.295268737    -4.585608538
 C       -2.763160600     9.325575386    -4.457779273
 C       -1.633902823     9.358172292    -5.281158160
 C       -0.616995777     8.417398618    -5.133285160
 C       -0.702925961     7.425447292    -4.149402734
 C       -1.827702594     7.396987619    -3.316815344
 C       -2.842082696     8.340063298    -3.466663022
Si        0.659273224     6.199361550    -3.983056929
 C        1.425439239     5.818010229    -5.641084685
 C        1.979660292     6.939586168    -2.826121694
 C        0.013018172     4.603848041    -3.179958717
 C       -9.468709476    14.873535921    -7.546656930
 C       -7.477443031    17.136816825    -6.831957713
 C       -3.507076503    13.349250202     1.900784687
 C       -3.336915475    13.463214252    -1.163838806
 C       -0.651050539    -0.896208305    -1.548849094
 C       -0.633937331    -0.918111848     1.540123518
 H        1.157506059     2.654793734     0.764768653
 H        0.255409659     4.908566848     0.758500030
 H       -3.503189720     3.444019480    -0.744915830
 H       -2.639561048     1.171077030    -0.756608263
 H       -3.301279551     5.730181439    -0.363933199
 H       -0.586012202     6.763256928     0.709601977
 H       -0.402966920     9.072005171     1.070117238
 H       -1.297005323    11.336618038     1.060934900
 H       -5.079221251     9.785230504    -0.434033103
 H       -4.144539945     7.544876855    -0.411297590
 H       -6.132641058    11.569659288     1.102431170
 H       -6.451348338    13.498353191    -1.329491689
 H       -8.656737341    13.838226249    -2.067749529
 H      -11.075865593    13.434828042    -1.923652345
 H      -10.428205853    10.899438514     1.515396832
 H       -8.021113920    11.205964975     1.284028737
 H      -13.910382834    10.783319083     0.647826075
 H      -12.672908536    11.193770025     1.871709276
 H      -12.330178494     9.978276349     0.597040957
 H      -12.611863049    17.251299330     2.663016946
 H      -11.417704564    17.885988796     1.515638960
 H      -11.232077717    16.225302310     2.170111195
 H      -14.011239889    16.134619640    -1.601312008
 H      -12.955009135    15.747691150    -3.795837378
 H       -9.066023351    16.229664308    -2.004374635
 H      -10.100477979    16.530653417     0.188309447
 H      -11.098698138    15.557320443    -5.165130930
 H       -8.309367155    15.956097421    -3.816590870
 H       -7.942532428    13.200110067    -4.377964324
 H       -6.206792999    11.524822295    -4.069310323
 H       -3.907255921    13.260685595    -7.270108490
 H       -5.617085399    14.955635812    -7.614571172
 H       -3.028053606    11.413756698    -6.188307209
 H       -4.674272770    10.160040248    -3.883218497
 H       -1.541236224    10.119664042    -6.052988713
 H        0.237655170     8.490779832    -5.811222904
 H       -1.941673430     6.652950657    -2.521371645
 H       -3.702392091     8.311301458    -2.799261704
 H      -12.876506327    13.807157934    -0.986988860
 H      -14.217283520    12.911955541    -0.234612511
 H      -13.372534439    13.460278886     2.056614120
 H      -11.898346314    14.162697998     1.399361860
 H      -14.516704693    15.340906891     0.347446640
 H      -14.160116538    15.647839117     2.055749722
 H        2.263283083    -1.028984934    -0.056151166
 H        2.276316981     0.465079418     0.912908426
 H        2.260689293     0.556346797    -0.869401323
 H        2.199507503     5.035644539    -5.550410766
 H        1.899977992     6.706398450    -6.091205864
 H        0.662091617     5.449849708    -6.350469809
 H        2.826397161     6.195573880    -2.805947066
 C        2.532558746     8.281603634    -3.339635283
 C        1.475834871     7.132668995    -1.384444343
 H       -0.377465393     4.906566423    -2.161574700
 C       -1.152115312     3.960152892    -3.952266768
 C        1.112480463     3.548714028    -2.964104858
 H      -10.306278392    15.629257757    -7.567882337
 C       -8.867357469    14.789458799    -8.960923321
 C      -10.067115691    13.502686960    -7.180980518
 H       -6.994368469    16.919619654    -7.828497223
 C       -8.529125238    18.239886837    -7.044804131
 C       -6.387464554    17.659905356    -5.878952443
 H       -2.384207931    13.453254649     1.870474872
 C       -4.114995007    14.759183320     2.002493033
 C       -3.875170598    12.552193105     3.164803448
 H       -3.907933942    14.437150393    -1.141509061
 C       -1.835022444    13.786623363    -1.056912118
 C       -3.594803182    12.787214460    -2.517392618
 H       -1.774654602    -0.921962176    -1.442776425
 C       -0.318362720    -0.146902180    -2.851753509
 C       -0.157260234    -2.349149415    -1.666806319
 H       -0.169392096    -1.945544639     1.499395285
 C       -0.191555377    -0.246046685     2.852907494
 C       -2.163835711    -1.086689786     1.563023378
 H        2.979383463     8.215646121    -4.339437555
 H        3.327073124     8.642580027    -2.671585041
 H        1.769275940     9.073304459    -3.365920345
 H        1.177661661     6.190402152    -0.905780249
 H        0.624670318     7.827644375    -1.319776358
 H        2.272337084     7.560814909    -0.760305108
 H       -1.990354051     4.648041897    -4.129712697
 H       -1.562886380     3.119982417    -3.372298919
 H       -0.847328040     3.551733880    -4.924017453
 H        1.953488302     3.911865762    -2.360204298
 H        1.516659484     3.150050801    -3.902636449
 H        0.696272737     2.690022350    -2.415113007
 H       -8.508301581    15.754455803    -9.340576239
 H       -9.630672781    14.445117595    -9.673900578
 H       -8.038434920    14.070786757    -9.031944939
 H      -10.553109654    13.482080091    -6.195635823
 H       -9.320191904    12.695305618    -7.194692705
 H      -10.837421061    13.220089191    -7.911958012
 H       -9.297062249    17.972916573    -7.782247272
 H       -8.045997296    19.152908840    -7.421511090
 H       -9.044156139    18.525824825    -6.116570708
 H       -5.579325703    16.936494930    -5.700740913
 H       -6.784899772    17.962314817    -4.900335263
 H       -5.910553918    18.553226130    -6.306780123
 H       -3.821668223    15.419787038     1.176286946
 H       -3.774328686    15.250807323     2.924768571
 H       -5.213405393    14.749213797     2.046675065
 H       -3.446344977    11.540377871     3.181802002
 H       -4.959828690    12.455971670     3.309200095
 H       -3.489502820    13.063567367     4.058153301
 H       -1.573182099    14.365142740    -0.162904793
 H       -1.523043926    14.395610107    -1.918415604
 H       -1.202431730    12.887658281    -1.077410268
 H       -4.653562210    12.555424972    -2.698192111
 H       -3.022273382    11.855889258    -2.647041238
 H       -3.286597299    13.447273832    -3.341677913
 H       -0.702901989     0.883546600    -2.871040243
 H       -0.776163228    -0.659901746    -3.709634554
 H        0.759007718    -0.102131592    -3.059187368
 H       -0.418510502    -2.969784725    -0.800075226
 H        0.928278646    -2.422041977    -1.815408987
 H       -0.619266262    -2.832691580    -2.539912230
 H        0.897977300    -0.160768537     2.954116788
 H       -0.533955782    -0.838933527     3.713317520
 H       -0.618536584     0.758741595     2.983270798
 H       -2.553401225    -1.646992382     0.703659687
 H       -2.698757075    -0.127494551     1.610632587
 H       -2.466368443    -1.650113588     2.457800895

