187   

Si        0.000000000     0.000000000     0.000000000
 C        1.865494379     0.000000000     0.000000000
 C       -0.679936052     1.710654247     0.000000000
 C        0.127250911     2.808994719     0.312629835
 C       -0.399712384     4.100491021     0.309203648
 C       -1.744111994     4.322788298     0.000124418
 C       -2.552692150     3.220617117    -0.308828758
 C       -2.029262576     1.930756022    -0.308309182
 C       -2.339136154     5.654997132    -0.016069546
 C       -1.678252226     6.792662557     0.257754020
 C       -2.274955479     8.124141572     0.241075554
 C       -3.620052377     8.342813243    -0.068529647
 C       -4.149874571     9.632756683    -0.072811094
 C       -3.347536526    10.731932737     0.249191752
 C       -1.998820190    10.515565199     0.562428203
 C       -1.469717276     9.227912039     0.552424874
Si       -4.018950182    12.444811824     0.251849621
 C       -3.229134224    13.488853013     1.527260033
 C       -2.745371843    13.025673373     2.688024974
 C       -2.113396158    13.863399341     3.707749536
 C       -1.644866896    13.261327536     4.884796019
 C       -1.039294723    14.008477511     5.881048692
 C       -0.835338789    15.396401997     5.709913563
 C       -1.303975263    16.001464558     4.526886980
 C       -1.949219049    15.243174270     3.559156966
 N       -0.221719418    16.137486915     6.726536614
 C        0.827163779    15.484517056     7.525139241
 C       -0.015381291    17.572601272     6.497517661
 C        1.955988445    14.813756133     6.720314666
 C        2.984627851    15.789628784     6.121696634
 N        3.831966883    16.524207499     7.083009364
 C        3.271453014    17.732153223     7.572006472
 C        3.026905141    18.753430586     6.631518976
 C        2.481001187    19.958989147     7.039841501
 C        2.191840440    20.199429912     8.392123018
 C        2.463812047    19.194357112     9.323108929
 C        3.009695724    17.977577657     8.927720674
 C        4.475835570    15.660579701     8.084239014
 C        1.615088349    21.492143691     8.769217694
 C        1.298777364    21.833575945    10.024725269
Si        0.578051021    23.430080950    10.549904370
 C        1.541227097    24.118189324    11.956894777
 C        2.868135461    23.722447845    12.164954883
 C        3.598919767    24.242869749    13.230331319
 C        3.027367519    25.177234943    14.103831030
 C        1.704489442    25.574823053    13.888199457
 C        0.968103451    25.052797558    12.825894438
 C        3.833367508    25.693475302    15.205387234
 C        3.404949130    26.586725768    16.113416288
 C        4.209904978    27.103671919    17.215303675
 C        5.532086256    26.708569186    17.433732852
 C        6.264867413    27.228965701    18.500522763
 C        5.687146071    28.152527929    19.377169028
 C        4.360527162    28.549723305    19.160617719
 C        3.633599470    28.032974157    18.091956745
Si        6.640809514    28.848799035    20.790004125
 C        8.211800324    27.890327354    21.095190506
 C        7.090959149    30.660469210    20.418322413
 C        5.532187878    28.806087707    22.336637575
 C        0.575731288    24.688821293     9.124844663
 C       -1.218674446    23.120411686    11.094256802
 C       -3.690574756    13.227804034    -1.450930845
 C       -5.896648602    12.415783709     0.557189108
 C       -0.652954115    -0.904972394    -1.542232473
 C       -0.614969052    -0.923238453     1.546646137
 H        1.185886978     2.697786418     0.562622140
 H        0.250556423     4.938917660     0.551954114
 H       -3.602550392     3.371871955    -0.552473480
 H       -2.708093005     1.110571278    -0.558363749
 H       -3.401654390     5.677752560    -0.275353856
 H       -0.615751944     6.770292364     0.516828986
 H       -4.267430391     7.503087896    -0.313539773
 H       -5.206872363     9.741100717    -0.330652242
 H       -1.324729639    11.339336391     0.820997708
 H       -0.418939308     9.079506895     0.793681103
 H       -3.192286291    14.560661894     1.281412371
 H       -2.779913159    11.961784505     2.962948070
 H       -1.770845213    12.186985250     5.026777359
 H       -0.725724359    13.521092946     6.799112572
 H       -1.170450755    17.064492033     4.357192198
 H       -2.317177062    15.738889972     2.659638806
 H        0.427521851    18.041974146     7.395962576
 H       -0.994587765    18.059706769     6.335147748
 H        0.642767676    17.794530516     5.641600877
 H        5.010203566    14.847920364     7.561303482
 H        3.784658765    15.210695782     8.813713013
 H        5.234384708    16.247737345     8.632623601
 H        3.279791708    18.590439757     5.585560896
 H        2.291389746    20.737626494     6.300414636
 H        2.251845296    19.358939251    10.380856252
 H        3.214488448    17.218607129     9.676916320
 H        1.468911181    22.165670727     7.914859026
 H        1.452086426    21.131375364    10.861576419
 H        3.367553293    23.000141980    11.511189994
 H        4.627240697    23.919831508    13.381680178
 H        1.237130021    26.299502903    14.552257952
 H       -0.062138191    25.399822239    12.708300567
 H        4.851193113    25.295525498    15.253563245
 H        2.387080410    26.984664687    16.065355380
 H        6.003902500    25.988102831    16.768208671
 H        7.294870545    26.881789652    18.620430210
 H        3.856458944    29.267754541    19.813715848
 H        2.604930776    28.354001290    17.939438105
 H        1.254277842    16.230138108     8.234118186
 H        0.325621027    14.717915119     8.164618327
 H        2.466398082    14.073609328     7.364392261
 H        1.517448956    14.220065307     5.889936505
 H        3.682942639    15.220234794     5.461430217
 H        2.463811595    16.518208268     5.461309870
 H        2.262765582    -1.029991389    -0.039976780
 H        2.276111110     0.479712593     0.905549972
 H        2.260832429     0.542491046    -0.878046770
 H        8.756940787    28.288400370    21.969711091
 H        8.894448951    27.936449344    20.228732402
 H        7.993505976    26.825878964    21.296884720
 H        7.715087441    31.005374750    21.292889070
 C        7.937010195    30.808226487    19.140412222
 C        5.868814840    31.589898526    20.310270635
 H        4.634814689    29.445818880    22.091647071
 C        5.025521829    27.388703330    22.659232815
 C        6.202983537    29.396432422    23.589729232
 H        0.065954534    24.176611074     8.258214008
 C       -0.208348089    25.973274793     9.446919356
 C        1.999063303    25.076316966     8.683356348
 H       -1.638264293    24.129978821    11.373634474
 C       -2.093193045    22.534768366     9.971805723
 C       -1.311512056    22.208803122    12.330699861
 H       -4.125014989    14.267902445    -1.405437268
 C       -2.186663024    13.350960459    -1.755185560
 C       -4.374189251    12.474015680    -2.604844358
 H       -6.341572939    11.805323858    -0.280679915
 C       -6.260575521    11.738541331     1.890618097
 C       -6.538750397    13.814138524     0.516780652
 H       -1.777913808    -0.907012942    -1.447581444
 C       -0.292545027    -0.176294501    -2.849542591
 C       -0.186620490    -2.368507725    -1.638862192
 H       -0.125153398    -1.939059126     1.511091081
 C       -0.188418525    -0.232853345     2.855128919
 C       -2.139926835    -1.130782217     1.573290185
 H        8.873592396    30.236654704    19.168035748
 H        8.223536927    31.860107899    18.997779433
 H        7.393311992    30.511947921    18.231766883
 H        5.256174756    31.612384633    21.220347600
 H        5.211928214    31.335352324    19.466627460
 H        6.198919263    32.624873045    20.138028389
 H        4.485263377    26.920369047    21.824028629
 H        4.318766326    27.423250238    23.500589549
 H        5.829175546    26.703006141    22.958732288
 H        6.530926734    30.435785455    23.459204242
 H        7.069310445    28.812239965    23.927335980
 H        5.491298791    29.402145763    24.428239798
 H       -1.266859389    25.793033611     9.673538466
 H       -0.192424577    26.649805360     8.579807704
 H        0.223623779    26.540746336    10.283514056
 H        2.620648158    24.217487556     8.395922739
 H        2.547737089    25.633303805     9.456969590
 H        1.955612294    25.734212049     7.803948843
 H       -2.145682162    23.174280700     9.081364472
 H       -3.127715847    22.415050915    10.324708329
 H       -1.762624741    21.537645864     9.646834913
 H       -0.740873652    22.583093222    13.192470294
 H       -0.977357442    21.181319680    12.132025660
 H       -2.356295039    22.133176251    12.664817685
 H       -1.634912406    13.929066428    -1.001335376
 H       -2.036701330    13.869664934    -2.712576778
 H       -1.689988956    12.374938562    -1.854133750
 H       -5.466461617    12.428257714    -2.508933076
 H       -4.005296294    11.444938232    -2.722395780
 H       -4.171138638    12.981944882    -3.558780776
 H       -5.887990489    10.708239465     1.974129198
 H       -7.352568434    11.681185117     1.999921555
 H       -5.891713093    12.293827051     2.765636327
 H       -6.390572998    14.334897739    -0.437643774
 H       -6.177505417    14.473248226     1.318861585
 H       -7.626499531    13.731603892     0.654921384
 H       -0.644282418     0.865041812    -2.877120562
 H       -0.762780686    -0.681625130    -3.705101424
 H        0.786633748    -0.165897905    -3.052042622
 H       -0.472736647    -2.974650862    -0.769656188
 H        0.899212409    -2.464591494    -1.770884289
 H       -0.645729162    -2.851106445    -2.513997993
 H        0.898588361    -0.118064494     2.954230152
 H       -0.514081322    -0.829685754     3.719190986
 H       -0.640994502     0.761429378     2.980332456
 H       -2.518117583    -1.696493039     0.712470254
 H       -2.698617433    -0.185747783     1.628282382
 H       -2.424726682    -1.706112770     2.466322875

