187   

Si        0.000000000     0.000000000     0.000000000
 C        1.865403874     0.000000000     0.000000000
 C       -0.671533510     1.714086009     0.000000000
 C        0.140789755     2.809000717    -0.311235205
 C       -0.380423517     4.102871554    -0.307647425
 C       -1.721898300     4.330942458     0.008346534
 C       -2.535398778     3.232381040     0.317561615
 C       -2.019456849     1.939746308     0.310579379
 C       -2.312954489     5.664398803     0.025645957
 C       -1.654764794     6.802488953    -0.253006946
 C       -2.262022405     8.129100807    -0.230941920
 C       -1.471751949     9.243634044    -0.540598492
 C       -2.014114023    10.526958130    -0.530630424
 C       -3.359562375    10.723873670    -0.200779252
 C       -4.149497693     9.613152321     0.119072904
 C       -3.603232747     8.331351721     0.108821855
Si       -4.120887243    12.398352993    -0.173817442
 C       -5.883934055    12.177004620    -0.601440740
 C       -6.936218786    12.665317816     0.066732260
 C       -8.326484930    12.445062524    -0.338504312
 C       -9.354745417    13.003207557     0.434939784
 C      -10.684430965    12.821567512     0.090549339
 C      -11.022024903    12.080587803    -1.058908587
 C       -9.998931689    11.502705247    -1.822677884
 C       -8.670739212    11.663344693    -1.444037930
 N      -12.402756684    11.928665568    -1.360442109
 C      -13.121413702    13.197612102    -1.601310900
 C      -12.725666381    10.894409306    -2.358839669
 C      -12.681627502    13.965384566    -2.862146105
 C      -11.611316873    15.029722135    -2.548043612
 N      -10.767851304    15.427159182    -3.696454729
 C       -9.789465940    14.422189856    -4.009538510
 C       -8.560723372    14.533180106    -3.339582418
 C       -7.558151528    13.606179316    -3.580802295
 C       -7.756368169    12.551606181    -4.485598027
 C       -8.979084804    12.457601881    -5.154510405
 C       -9.987886595    13.390408923    -4.932235386
 C      -11.547146151    15.882748278    -4.861652961
 C       -6.664286423    11.598507273    -4.704752263
 C       -6.736792517    10.555661509    -5.541331072
Si       -5.409138850     9.337212500    -5.853740850
 C       -6.076567249     7.631423696    -5.696911991
 C       -7.218447303     7.394045256    -4.921120090
 C       -7.729330923     6.104552318    -4.798007999
 C       -7.100902085     5.021448023    -5.426383672
 C       -5.954761325     5.261473666    -6.189826495
 C       -5.445936260     6.552514200    -6.324194541
 C       -7.672610552     3.688118175    -5.269015516
 C       -7.172410475     2.572530014    -5.826884827
 C       -7.740493891     1.237662897    -5.672354128
 C       -8.885442681     0.988323811    -4.911466007
 C       -9.394049333    -0.304922980    -4.791182960
 C       -8.769345209    -1.377676245    -5.434716587
 C       -7.620618187    -1.130195769    -6.198637282
 C       -7.112850437     0.160717580    -6.313092165
Si       -9.426278981    -3.090602390    -5.287277348
 C      -11.132145684    -3.109806148    -4.532639575
 C       -9.467458235    -3.863850054    -7.026190399
 C       -8.261958979    -4.123817583    -4.191274054
 C       -4.718568110     9.629295943    -7.599246045
 C       -4.002541408     9.515301768    -4.587724692
 C       -3.898586331    13.177785633     1.542909094
 C       -3.307028440    13.528067020    -1.469193179
 C       -0.622364826    -0.915582067    -1.548641885
 C       -0.658100797    -0.904834882     1.539978680
 H        1.198339317     2.693159286    -0.563103698
 H        0.272133034     4.938213871    -0.554176248
 H       -3.584713171     3.388137695     0.562633186
 H       -2.702712879     1.121847836     0.556682365
 H       -3.375789558     5.687134032     0.287914403
 H       -0.594772646     6.785157390    -0.518859885
 H       -0.422999435     9.108201003    -0.796622236
 H       -1.352348339    11.358677251    -0.785092807
 H       -5.208121104     9.709063838     0.386229478
 H       -4.236734097     7.483042818     0.363663862
 H       -6.026376627    11.572995640    -1.516197605
 H       -6.837686591    13.275202416     0.972942165
 H       -9.108293146    13.589675370     1.319754720
 H      -11.472753101    13.238338487     0.712775767
 H      -10.225483766    10.934651034    -2.720765888
 H       -7.891785238    11.189202576    -2.047141478
 H      -13.819089823    10.746009595    -2.375772418
 H      -12.273080956     9.936158940    -2.046371955
 H      -12.390449325    11.125279428    -3.382153709
 H      -12.132860688    16.769175111    -4.563306919
 H      -12.235554112    15.136228409    -5.282913735
 H      -10.848515995    16.199430196    -5.656022797
 H       -8.411016925    15.347426284    -2.631275121
 H       -6.608132967    13.698190237    -3.051226935
 H       -9.152274417    11.650866152    -5.866853304
 H      -10.925809826    13.309026366    -5.472954673
 H       -5.771682919    11.816520402    -4.101930377
 H       -7.646618012    10.365965392    -6.135522505
 H       -7.743040345     8.200929085    -4.398167538
 H       -8.623068197     5.938100948    -4.199942263
 H       -5.446819527     4.436846322    -6.686447190
 H       -4.547663211     6.679194482    -6.934659576
 H       -8.569729505     3.645089863    -4.644835014
 H       -6.274274428     2.617160704    -6.450186047
 H       -9.392153568     1.806536009    -4.403045837
 H      -10.292580429    -0.437821404    -4.182381251
 H       -7.091178561    -1.929451961    -6.724919583
 H       -6.218831346     0.333164874    -6.909449912
 H      -14.206521490    12.953579575    -1.666416693
 H      -13.010862607    13.836984236    -0.697143133
 H      -12.289084728    13.253860485    -3.614175580
 H      -13.558101015    14.443925052    -3.333445678
 H      -12.091805868    15.954605436    -2.159682797
 H      -10.931235621    14.664673122    -1.741693681
 H        2.263686168    -1.028911734     0.053751744
 H        2.260715637     0.554709298     0.870331270
 H        2.274916599     0.467563292    -0.912405182
 H      -11.534739091    -4.137368036    -4.484939874
 H      -11.837118350    -2.505079725    -5.131563774
 H      -11.129492151    -2.705725963    -3.505139033
 H       -8.399600625    -3.858212112    -7.392323419
 C       -9.962440681    -5.320996962    -7.039034058
 C      -10.308573831    -3.039365599    -8.017472729
 H       -8.754827858    -5.133937853    -4.091994021
 C       -6.863705779    -4.334213148    -4.799334463
 C       -8.099979042    -3.530372168    -2.779591423
 H       -3.890914048     8.874490539    -7.737096759
 C       -5.767671674     9.388377324    -8.699062319
 C       -4.115366457    11.034082225    -7.777180793
 H       -3.734836853    10.610987150    -4.559021662
 C       -4.453367081     9.086283976    -3.182329565
 C       -2.733909770     8.726737780    -4.956940012
 H       -4.484871563    14.141929283     1.527412838
 C       -4.462813203    12.292091336     2.668947541
 C       -2.433030869    13.516826330     1.869317100
 H       -2.234357435    13.646650671    -1.139339836
 C       -3.302908357    12.923004823    -2.883932610
 C       -3.944506001    14.927800162    -1.527740021
 H       -0.137999127    -1.933955168    -1.516182410
 C       -2.148494534    -1.113485292    -1.575692719
 C       -0.192934696    -0.223668484    -2.855564462
 H       -1.782736674    -0.906889891     1.440951320
 C       -0.192035113    -2.368430676     1.637680845
 C       -0.302434323    -0.176491587     2.848787626
 H       -9.364043056    -5.989391540    -6.406578111
 H       -9.902627834    -5.728290321    -8.058874981
 H      -11.011809149    -5.419535206    -6.731009335
 H       -9.976143830    -1.994870719    -8.104180701
 H      -11.377517010    -3.026372290    -7.766752848
 H      -10.232545621    -3.470059241    -9.026039472
 H       -6.884040391    -4.824404384    -5.780818920
 H       -6.264345248    -4.984181202    -4.145182616
 H       -6.297778915    -3.397357604    -4.900791327
 H       -9.049687213    -3.421355371    -2.240302172
 H       -7.605200194    -2.548331007    -2.783731612
 H       -7.471203532    -4.189366599    -2.163898062
 H       -6.215370479     8.385318051    -8.661980032
 H       -5.301775689     9.479148255    -9.690680822
 H       -6.587405343    10.119349916    -8.676745111
 H       -3.297078896    11.247806302    -7.077074845
 H       -4.860292836    11.836044217    -7.674152246
 H       -3.691562468    11.136881712    -8.786203998
 H       -5.312739558     9.652384577    -2.799832736
 H       -3.633461988     9.242962619    -2.462457658
 H       -4.704146728     8.017702172    -3.116427309
 H       -2.287547775     9.036264074    -5.909498900
 H       -2.900846339     7.640983699    -4.997456875
 H       -1.961619099     8.882665163    -4.188471517
 H       -5.523500928    12.037468341     2.538748241
 H       -4.386717040    12.813490165     3.633530543
 H       -3.910299519    11.348394096     2.785810363
 H       -1.984576797    14.233426505     1.169674670
 H       -1.785194083    12.629381339     1.903182630
 H       -2.367073206    13.979986922     2.864772024
 H       -2.867915001    11.913929692    -2.926903540
 H       -2.700023936    13.546289633    -3.559363232
 H       -4.307883729    12.873174797    -3.327281169
 H       -3.886870212    15.472092695    -0.576529064
 H       -5.000163835    14.908556408    -1.835039132
 H       -3.420232742    15.549886794    -2.267300378
 H       -2.530174537    -1.680518583    -0.717406492
 H       -2.437575159    -1.682324014    -2.471672574
 H       -2.701439978    -0.164330818    -1.626672707
 H        0.894331523    -0.113228375    -2.954848498
 H       -0.641760173     0.772883602    -2.977584158
 H       -0.521812643    -0.816498294    -3.721043426
 H       -0.472160636    -2.973141961     0.765528246
 H       -0.656762527    -2.852651581     2.508882224
 H        0.892957922    -2.464011502     1.776606805
 H       -0.655879429     0.864298375     2.875682174
 H        0.776109240    -0.164641228     3.054316076
 H       -0.774525370    -0.683060799     3.702573591

