187   

Si        0.000000000     0.000000000     0.000000000
 C        1.865041635     0.000000000     0.000000000
 C       -0.680673885     1.710391083     0.000000000
 C        0.111110802     2.801605099    -0.371749245
 C       -0.414538110     4.093613283    -0.368269522
 C       -1.742500619     4.323605010     0.000536950
 C       -2.536058862     3.228516663     0.367907704
 C       -2.014170351     1.938020759     0.366082175
 C       -2.336164418     5.656325935     0.019472846
 C       -1.689983863     6.788409454    -0.307597498
 C       -2.287657660     8.119551166    -0.287278136
 C       -1.498866036     9.218687676    -0.652976238
 C       -2.026487501    10.507175899    -0.648490480
 C       -3.360927146    10.725304410    -0.283274522
 C       -4.150637249     9.630493722     0.082667966
 C       -3.616609098     8.342382768     0.083498330
Si       -4.063076628    12.424524920    -0.275503720
 C       -5.889708677    12.340004912    -0.283161071
 C       -6.710154185    12.994666102     0.548215353
 C       -8.171060654    12.895179050     0.503654893
 C       -8.925613336    13.631626385     1.430209072
 C      -10.309205869    13.572131399     1.429863121
 C      -10.984359627    12.790158875     0.470705778
 C      -10.234343278    12.048538815    -0.453606056
 C       -8.844391444    12.089645889    -0.417456982
 N      -12.401010541    12.773959543     0.527305928
 C      -13.052674274    14.081950346     0.314729939
 C      -13.062199099    11.663055615    -0.173653436
 C      -13.336455074    14.475534507    -1.145582689
 C      -12.078733627    14.728907825    -1.997430281
 N      -11.402353623    16.015550148    -1.767142077
 C      -12.179538499    17.180308483    -1.802501715
 C      -13.253748530    17.273270869    -2.715967630
 C      -14.033677278    18.416131557    -2.766276598
 C      -13.752247766    19.524173780    -1.953443074
 C      -12.670923530    19.441673802    -1.072203508
 C      -11.888380774    18.297117023    -0.994867641
 C      -10.297933282    15.961218658    -0.801205361
 C      -14.610180132    20.705522857    -2.048408824
 C      -14.440774506    21.820697069    -1.324871122
Si      -15.513238280    23.296196916    -1.444238576
 C      -16.227777910    23.495947764    -3.127666891
 C      -15.500786731    23.075603845    -4.247515343
 C      -16.028123762    23.219973068    -5.529678392
 C      -17.285629504    23.798676648    -5.723605705
 C      -18.007751811    24.226925332    -4.602110558
 C      -17.485532934    24.080150620    -3.319281811
 C      -17.877351339    23.970171725    -7.046283560
 C      -17.292944688    23.603924416    -8.199649721
 C      -17.885001091    23.775590119    -9.522155117
 C      -19.143816562    24.350150905    -9.715704652
 C      -19.672274913    24.495195499   -10.998359696
 C      -18.954492218    24.060621264   -12.116885827
 C      -17.692148345    23.482481795   -11.925417201
 C      -17.164848625    23.344536714   -10.644544355
Si      -19.636916727    24.244324910   -13.816587778
 C      -21.443310277    24.709006179   -13.784806771
 C      -18.675832991    25.599053281   -14.746436810
 C      -19.398099361    22.593425635   -14.733814658
 C      -16.904409519    23.151744280    -0.154278997
 C      -14.464563603    24.832045759    -1.042321299
 C       -3.423824270    13.362189066     1.249982404
 C       -3.504534290    13.348889364    -1.842125867
 C       -0.619512350    -0.917449758    -1.548408011
 C       -0.652258602    -0.911140706     1.539312680
 H        1.156849675     2.684224476    -0.669090441
 H        0.223760714     4.926282373    -0.658092250
 H       -3.573215925     3.385541684     0.658369390
 H       -2.681419562     1.123532896     0.661811065
 H       -3.385186811     5.684527226     0.329422511
 H       -0.641348741     6.761657753    -0.617453683
 H       -0.461364220     9.066409798    -0.944019266
 H       -1.363963164    11.326102645    -0.941898619
 H       -5.198059032     9.743399083     0.380911454
 H       -4.249669727     7.506454895     0.375725966
 H       -6.288982115    11.682933057    -1.074536014
 H       -6.346297449    13.662046192     1.340225327
 H       -8.417109234    14.248905633     2.171508525
 H      -10.882779221    14.114929852     2.178862653
 H      -10.727771089    11.431536585    -1.198597584
 H       -8.279650503    11.492902370    -1.135541593
 H      -14.136877304    11.670908862     0.079927696
 H      -12.648357923    10.707266311     0.195390525
 H      -12.962255584    11.689320515    -1.269900476
 H       -9.730978230    15.019644557    -0.926218316
 H      -10.624668846    16.021746313     0.249640677
 H       -9.592043261    16.786528006    -1.007790498
 H      -13.471079869    16.446821879    -3.385792934
 H      -14.871417472    18.459144912    -3.463820501
 H      -12.430046074    20.289446496    -0.429137676
 H      -11.061710383    18.273198823    -0.292782918
 H      -15.417242571    20.594641382    -2.786922169
 H      -13.630031387    21.903353771    -0.585587508
 H      -14.508270988    22.620366430    -4.157486977
 H      -15.446610731    22.878163830    -6.384029480
 H      -18.988395089    24.680504077    -4.731239191
 H      -18.094889839    24.433390328    -2.483135957
 H      -18.867858926    24.434481809    -7.047415279
 H      -16.302197463    23.139843208    -8.198578655
 H      -19.725095951    24.692596602    -8.861538321
 H      -20.661083755    24.953724793   -11.086267001
 H      -17.086155289    23.123588082   -12.762180058
 H      -16.182199794    22.894481924   -10.516116834
 H      -14.018238757    14.045793557     0.875158995
 H      -12.444839511    14.876630683     0.802131505
 H      -13.950954559    13.696915119    -1.634902520
 H      -13.973666454    15.385578509    -1.142691031
 H      -11.343355487    13.905468722    -1.848054755
 H      -12.353530604    14.690676143    -3.079584726
 H        2.262679672    -1.029359479     0.052070410
 H        2.260367290     0.553133535     0.871510165
 H        2.275738619     0.469174659    -0.911071026
 H      -21.854370267    24.777732991   -14.807849229
 H      -21.606316411    25.684921859   -13.294861790
 H      -22.037353228    23.953621752   -13.239092213
 H      -19.187902168    25.702824801   -15.746554224
 C      -18.740360538    26.962146961   -14.033146760
 C      -17.199628714    25.246546295   -15.002115070
 H      -18.285053162    22.405472593   -14.747329075
 C      -20.065351089    21.412909668   -14.005107177
 C      -19.888466948    22.624537795   -16.192269204
 H      -17.497602327    24.108798943    -0.223451781
 C      -17.853947039    21.976900970    -0.450081682
 C      -16.382679915    23.020647816     1.287880957
 H      -14.059282851    24.670216812    -0.002133415
 C      -13.271120704    24.988796655    -2.001737251
 C      -15.279666437    26.136999935    -1.040667434
 H       -3.963719780    14.353180111     1.253161365
 C       -3.749684872    12.631808715     2.565596964
 C       -1.911799026    13.646023724     1.204814492
 H       -2.379401713    13.410934251    -1.782540518
 C       -3.870490938    12.594665928    -3.132715746
 C       -4.058139911    14.782207594    -1.923375319
 H       -0.136121547    -1.936338568    -1.514969620
 C       -2.145913899    -1.114109379    -1.573889364
 C       -0.188862887    -0.227561424    -2.855795358
 H       -1.776885050    -0.918591226     1.442039535
 C       -0.179363292    -2.372742301     1.633664439
 C       -0.297734973    -0.183611781     2.848855264
 H      -19.764027171    27.328422461   -13.882695895
 H      -18.226092686    27.726190768   -14.633659755
 H      -18.242331157    26.954965515   -13.052795169
 H      -17.064710860    24.319820067   -15.573942866
 H      -16.615272001    25.160167230   -14.075187447
 H      -16.720935426    26.042187352   -15.591655641
 H      -19.720130179    21.292323212   -12.968190901
 H      -19.828529924    20.470224011   -14.518672528
 H      -21.160722090    21.485781722   -13.982569224
 H      -19.401220161    23.399057447   -16.798583445
 H      -20.973924252    22.767487528   -16.276301673
 H      -19.666532886    21.665683131   -16.683049588
 H      -18.315122899    22.028011726    -1.446213290
 H      -18.681749580    21.968463222     0.272594242
 H      -17.360291165    20.997797040    -0.365728580
 H      -15.755310124    23.864050427     1.603094666
 H      -15.810737437    22.096647401     1.452400773
 H      -17.227451013    22.987587670     1.990903799
 H      -12.606813326    24.113848904    -2.018518200
 H      -12.649935984    25.842156748    -1.695120914
 H      -13.579792870    25.190438864    -3.037715625
 H      -16.098011262    26.139089097    -0.309565043
 H      -15.709058370    26.374644211    -2.024577112
 H      -14.631152743    26.985236143    -0.777550300
 H       -4.819873438    12.424806140     2.701654062
 H       -3.441791617    13.244973378     3.424267979
 H       -3.216599745    11.674840411     2.664344010
 H       -1.606350451    14.248345319     0.339841060
 H       -1.303970822    12.730184021     1.210028252
 H       -1.610415315    14.216130737     2.095900538
 H       -3.474766384    11.569626562    -3.165698503
 H       -3.447905580    13.113866501    -4.004928311
 H       -4.954158596    12.538279226    -3.303778757
 H       -3.762581279    15.412109885    -1.074507432
 H       -5.154783527    14.814798061    -1.996689045
 H       -3.675427746    15.282559159    -2.824659642
 H       -2.526079239    -1.685373927    -0.717573331
 H       -2.436632926    -1.678884104    -2.471703402
 H       -2.698251987    -0.164748012    -1.618327421
 H        0.898851217    -0.119541454    -2.954795946
 H       -0.635445434     0.769570408    -2.979450996
 H       -0.518131976    -0.820950819    -3.720855969
 H       -0.457007844    -2.977106676     0.760484320
 H       -0.641481867    -2.860927612     2.504107571
 H        0.906151771    -2.463706937     1.772010049
 H       -0.654549684     0.855918684     2.878256333
 H        0.781088172    -0.168388815     3.053147591
 H       -0.766855744    -0.693447989     3.702398754

