187   

Si        0.000000000     0.000000000     0.000000000
 C        1.865207835     0.000000000     0.000000000
 C       -0.681171137     1.710078494     0.000000000
 C        0.120739551     2.807565503    -0.328683384
 C       -0.407336324     4.098605853    -0.325017639
 C       -1.747705469     4.321342438     0.000444137
 C       -2.551202356     3.220042427     0.325196476
 C       -2.026789293     1.930635922     0.324093685
 C       -2.344149567     5.652797412     0.017703223
 C       -1.689084261     6.790240522    -0.270367899
 C       -2.289538240     8.120172701    -0.251908543
 C       -1.490292990     9.225381553    -0.574132123
 C       -2.020041593    10.513102904    -0.569687872
 C       -3.367126971    10.724121948    -0.249532813
 C       -4.167394775     9.623143517     0.072551495
 C       -3.631215466     8.335926476     0.074523259
Si       -4.073792594    12.421505638    -0.241548638
 C       -5.896495406    12.333742512    -0.346127670
 C       -6.761053882    12.968624254     0.455418631
 C       -8.216736162    12.866956984     0.332170140
 C       -9.023178751    13.580712162     1.232764810
 C      -10.403929854    13.518160778     1.158489867
 C      -11.026993525    12.754508454     0.148321932
 C      -10.223469618    12.034304478    -0.749670883
 C       -8.837763709    12.078470083    -0.638177495
 N      -12.439191642    12.723213614     0.115756200
 C      -13.108025827    14.044820318     0.108978583
 C      -13.055062224    11.751164370    -0.801646239
 C      -12.387214209    15.159817046    -0.665872764
 C      -12.210366377    14.840621263    -2.161337654
 N      -11.128780033    15.617524990    -2.797833910
 C      -11.241569655    17.020400754    -2.723742116
 C      -12.510854816    17.621117591    -2.868072480
 C      -12.647259817    18.997632515    -2.799083660
 C      -11.530064306    19.830005689    -2.635124108
 C      -10.271107515    19.234875818    -2.523728004
 C      -10.118852570    17.854712853    -2.572860072
 C       -9.795405954    15.045224764    -2.543069042
 C      -11.732686295    21.277941472    -2.568581860
 C      -10.745353124    22.170745007    -2.414215876
Si      -11.001105848    23.979260922    -2.331374814
 C      -12.466711609    24.510719202    -3.308071947
 C      -12.810555115    23.819248060    -4.475598732
 C      -13.917395579    24.207129322    -5.228710886
 C      -14.697462066    25.300460404    -4.841172484
 C      -14.346188384    25.996594720    -3.677334846
 C      -13.242995821    25.609258121    -2.920374659
 C      -15.864015785    25.741908417    -5.598358841
 C      -16.306464488    25.163341176    -6.727614449
 C      -17.472830229    25.603975076    -7.485517452
 C      -18.256233112    26.694096993    -7.098131392
 C      -19.363479637    27.081046946    -7.853005789
 C      -19.715335579    26.380074289    -9.010541628
 C      -18.931824506    25.285482132    -9.400827603
 C      -17.824230520    24.905068448    -8.648348001
Si      -21.173264050    26.876926463   -10.018586050
 C      -22.236303609    28.120773871    -9.122594042
 C      -20.583379444    27.647365233   -11.656281093
 C      -22.182277449    25.311862726   -10.413574979
 C      -11.203983121    24.488492116    -0.509527674
 C       -9.455952966    24.835846330    -3.037134497
 C       -3.516455574    13.324705966     1.336000170
 C       -3.438344003    13.383790232    -1.755470399
 C       -0.615618898    -0.921070813    -1.547761189
 C       -0.653662908    -0.907267989     1.540867730
 H        1.176178580     2.695995389    -0.591885716
 H        0.239055019     4.936246150    -0.580500969
 H       -3.598116936     3.371421720     0.581546522
 H       -2.701927622     1.111106969     0.586211278
 H       -3.403378452     5.675245255     0.291192394
 H       -0.630246392     6.769431660    -0.543840892
 H       -0.442860070     9.078620857    -0.830235778
 H       -1.348878945    11.337073595    -0.827041136
 H       -5.225208144     9.730618722     0.334207254
 H       -4.272755427     7.495161941     0.332293625
 H       -6.251844889    11.692740273    -1.170689860
 H       -6.440869594    13.619789151     1.279301590
 H       -8.557265448    14.187536006     2.010090461
 H      -11.015421589    14.049171420     1.884470900
 H      -10.669359094    11.433182262    -1.535732752
 H       -8.233788423    11.495770749    -1.335694650
 H      -14.135357253    11.686054665    -0.580834189
 H      -12.633321806    10.748060651    -0.608143973
 H      -12.930829788    11.987519831    -1.869820991
 H       -9.829000549    13.948348088    -2.668713416
 H       -9.407955715    15.251905454    -1.531320827
 H       -9.082282333    15.432871758    -3.291891291
 H      -13.389849863    17.004588800    -3.032113283
 H      -13.640191732    19.440052793    -2.889523613
 H       -9.385471525    19.858710530    -2.395485523
 H       -9.122775474    17.434065005    -2.475985094
 H      -12.788043426    21.570743546    -2.666003739
 H       -9.697741374    21.850721726    -2.310150171
 H      -12.234020800    22.958093677    -4.831184646
 H      -14.168458247    23.648714121    -6.128707106
 H      -14.939671614    26.851155844    -3.358596332
 H      -13.017282211    26.191298152    -2.022880340
 H      -16.381821264    26.608590581    -5.177338599
 H      -15.788190596    24.296728531    -7.148820299
 H      -18.006087815    27.254316753    -6.199029552
 H      -19.936885477    27.942672569    -7.500117967
 H      -19.159434978    24.699467487   -10.295766277
 H      -17.227261049    24.053032852    -8.968200263
 H      -14.144737199    13.928749835    -0.274847047
 H      -13.207695592    14.351453733     1.179034065
 H      -12.945391129    16.109619248    -0.548710315
 H      -11.395428069    15.357864504    -0.210008190
 H      -11.985200391    13.760403852    -2.308790169
 H      -13.155115518    15.031333929    -2.717245567
 H        2.262804668    -1.029331254     0.053172112
 H        2.261024650     0.553928140     0.870718687
 H        2.275454713     0.467965314    -0.911911441
 H      -23.130856511    28.380761351    -9.716291970
 H      -21.687776767    29.057455922    -8.920452152
 H      -22.586484057    27.718665436    -8.154648230
 H      -21.519517011    27.988862372   -12.185678823
 C      -19.682566728    28.876986814   -11.438069387
 C      -19.849939804    26.656879309   -12.578100465
 H      -21.486652989    24.632671945   -10.987379297
 C      -22.629358089    24.563253147    -9.144866896
 C      -23.413249338    25.580831476   -11.297180009
 H      -11.298730222    25.612659828    -0.506606300
 C      -12.477007491    23.898224100     0.123137492
 C       -9.992934414    24.112883896     0.363199692
 H       -8.589692549    24.489517631    -2.402992140
 C       -9.176764275    24.424425225    -4.493883108
 C       -9.525551195    26.370684630    -2.955490822
 H       -4.055804892    14.315940543     1.332369691
 C       -3.910518450    12.566221446     2.616488418
 C       -2.003964983    13.607474666     1.375879278
 H       -2.318368455    13.449091520    -1.635570634
 C       -3.732176914    12.658204772    -3.080547033
 C       -3.994642426    14.816413112    -1.833435021
 H       -0.124986967    -1.936596124    -1.514271237
 C       -2.140478679    -1.129037287    -1.573312691
 C       -0.190381094    -0.228206976    -2.855389423
 H       -1.778390372    -0.911488855     1.443724842
 C       -0.184402233    -2.369839365     1.637342399
 C       -0.296911596    -0.178316433     2.849013825
 H      -20.163379952    29.672705163   -10.854703122
 H      -19.415383419    29.324597940   -12.406131895
 H      -18.733364495    28.628138262   -10.941841162
 H      -20.452996649    25.779794745   -12.844557086
 H      -18.902451098    26.298925142   -12.151223190
 H      -19.590470790    27.149322258   -13.526757220
 H      -21.792969972    24.286831968    -8.486901334
 H      -23.128213259    23.622561125    -9.418208836
 H      -23.350263005    25.131624834    -8.542443069
 H      -23.165106858    26.051922947   -12.257082390
 H      -24.167275268    26.207075480   -10.802205475
 H      -23.914161623    24.632614175   -11.541010135
 H      -13.397589526    24.170174354    -0.411680653
 H      -12.596027425    24.270210186     1.150353739
 H      -12.448958100    22.801015777     0.193320831
 H       -9.052332589    24.562232247     0.020284759
 H       -9.839674336    23.026985701     0.435989850
 H      -10.146132510    24.470444122     1.391632883
 H       -9.058571188    23.340180030    -4.626313550
 H       -8.239893935    24.881676630    -4.842187648
 H       -9.959242885    24.760223313    -5.189709724
 H       -9.627481055    26.748552771    -1.930263479
 H      -10.346468413    26.794333810    -3.551764001
 H       -8.600072610    26.811027808    -3.354066708
 H       -4.986305669    12.356913738     2.691510570
 H       -3.648653315    13.160687734     3.503107558
 H       -3.382767496    11.607127205     2.722389647
 H       -1.653766371    14.228455456     0.541671642
 H       -1.397542795    12.690807288     1.392123394
 H       -1.749248616    14.157104198     2.293952707
 H       -3.330594995    11.635495082    -3.115583928
 H       -3.266283805    13.198361920    -3.917129261
 H       -4.805171865    12.602038859    -3.309382322
 H       -3.745939632    15.427902541    -0.956486714
 H       -5.086285325    14.845674445    -1.961585010
 H       -3.568432404    15.338420225    -2.702154636
 H       -2.517362762    -1.698015265    -0.714043200
 H       -2.426092286    -1.701174774    -2.468123372
 H       -2.699401322    -0.183915817    -1.624163888
 H        0.896447820    -0.111715830    -2.954569217
 H       -0.644501742     0.765511985    -2.979075396
 H       -0.515199237    -0.824235939    -3.720274257
 H       -0.463526952    -2.974783366     0.765043783
 H       -0.647722831    -2.855578081     2.508508765
 H        0.900880212    -2.463152651     1.775796886
 H       -0.652086790     0.861838562     2.876901931
 H        0.782054236    -0.164600951     3.052541476
 H       -0.766419776    -0.685946510     3.703640384

