187   

Si        0.000000000     0.000000000     0.000000000
 C        1.865156074     0.000000000     0.000000000
 C       -0.683176698     1.709199222     0.000000000
 C        0.106647887     2.802515231    -0.369604674
 C       -0.422035421     4.093355271    -0.365770383
 C       -1.750974926     4.320002359     0.001515336
 C       -2.542430095     3.222753070     0.367045663
 C       -2.017568051     1.933502581     0.364907940
 C       -2.348055579     5.651124423     0.020861811
 C       -1.704941203     6.785428336    -0.304291897
 C       -2.306758990     8.114746295    -0.283326671
 C       -3.637681158     8.331845208     0.085678540
 C       -4.174054433     9.618388335     0.092302746
 C       -3.385683414    10.718415786    -0.263360245
 C       -2.052428703    10.505022566    -0.633659069
 C       -1.522351842     9.216986164    -0.646748136
Si       -4.092888422    12.416540872    -0.254837401
 C       -2.750171405    13.654984176    -0.210504654
 C       -2.631774346    14.710323863    -1.026770556
 C       -1.539692743    15.682434100    -0.960232585
 C       -1.523968136    16.748317430    -1.871119844
 C       -0.513778148    17.695500575    -1.851153439
 C        0.558790384    17.579422799    -0.939485155
 C        0.544340939    16.507070161    -0.025733698
 C       -0.501265365    15.593410064    -0.029062283
 N        1.579511457    18.541598101    -0.923373314
 C        1.866893333    19.260084155    -2.173614418
 C        2.788296731    18.235676367    -0.142697660
 C        2.452434203    18.359643188    -3.277993596
 C        2.393622671    19.027919290    -4.662978232
 N        3.234286408    20.229995263    -4.828145513
 C        2.809245130    21.378314832    -4.120608892
 C        1.459960818    21.775429509    -4.237141329
 C        0.999791216    22.893086286    -3.562461275
 C        1.868874811    23.683572195    -2.794185272
 C        3.209885511    23.306060909    -2.706320722
 C        3.683044079    22.173947130    -3.361754809
 C        4.673757548    19.925993647    -4.785254947
 C        1.324567489    24.853416635    -2.103268910
 C        2.045799706    25.686448952    -1.341070049
Si        1.338482324    27.142747287    -0.488216853
 C       -0.424925841    26.857151415    -0.048105752
 C       -0.840524096    25.569724641     0.313088222
 C       -2.169577597    25.323149615     0.651403532
 C       -3.110712017    26.356883629     0.649539153
 C       -2.690804572    27.645734359     0.296359868
 C       -1.363609279    27.895087481    -0.046335955
 C       -4.511631532    26.142292162     0.997093679
 C       -5.035745296    24.956763181     1.351869515
 C       -6.435066339    24.735245138     1.700485763
 C       -7.384992976    25.759728979     1.698238952
 C       -8.712808602    25.501671800     2.038772806
 C       -9.120436213    24.209028297     2.382852088
 C       -8.169464487    23.179438882     2.385107575
 C       -6.843865660    23.441192473     2.050574021
Si      -10.868947819    23.852119372     2.834652174
 C      -12.002187707    25.253039963     2.352192532
 C      -11.398549562    22.246629070     1.959586932
 C      -10.992255477    23.581909573     4.714798837
 C        2.329407104    27.451240900     1.105361771
 C        1.502972352    28.663959576    -1.617430170
 C       -5.185665362    12.642839234    -1.794999538
 C       -5.172046866    12.640077825     1.297019412
 C       -0.618193911    -0.917591874    -1.548949831
 C       -0.651237613    -0.912889052     1.538740361
 H        1.152927151     2.687747876    -0.665895034
 H        0.214437635     4.927767338    -0.654575604
 H       -3.580350928     3.377164354     0.655944718
 H       -2.683313820     1.117251204     0.659069424
 H       -3.397521261     5.676091854     0.329149619
 H       -0.655867064     6.762263663    -0.613032944
 H       -4.268919091     7.492527688     0.371125243
 H       -5.221361637     9.725868234     0.387910239
 H       -1.392626275    11.329234620    -0.923854873
 H       -0.485136808     9.068820434    -0.941028694
 H       -2.011741777    13.468234881     0.586866098
 H       -3.354558082    14.928701841    -1.823991856
 H       -2.327274130    16.844009424    -2.602451842
 H       -0.552585301    18.526480447    -2.549885034
 H        1.343131627    16.385207366     0.698267919
 H       -0.495778054    14.782692519     0.701676465
 H        3.509959745    19.066377628    -0.223656233
 H        3.290071404    17.307658329    -0.460739664
 H        2.518991317    18.151474079     0.926482011
 H        4.887104056    19.079997311    -5.461241797
 H        5.050081606    19.672097191    -3.781818580
 H        5.239256340    20.793744738    -5.170533642
 H        0.779288949    21.205073418    -4.864712719
 H       -0.052232118    23.171506932    -3.643819563
 H        3.905599711    23.903159936    -2.115413596
 H        4.731089970    21.911094076    -3.263425274
 H        0.244104173    24.983764985    -2.264789822
 H        3.127156194    25.544894754    -1.200167652
 H       -0.148117950    24.720617382     0.337688794
 H       -2.468844866    24.311655219     0.921484654
 H       -3.407313650    28.464700457     0.289353509
 H       -1.094665039    28.920728397    -0.312198715
 H       -5.138179192    27.037425851     0.951248404
 H       -4.407137287    24.061978852     1.397569537
 H       -7.094055647    26.773568664     1.429688357
 H       -9.410079074    26.343742688     2.020148468
 H       -8.430474049    22.149563141     2.644895105
 H       -6.119343944    22.628696636     2.059553586
 H        0.932512860    19.758489708    -2.522707229
 H        2.567171539    20.096617192    -1.940600594
 H        3.489832503    18.078766654    -3.026086676
 H        1.886954155    17.406016873    -3.316884970
 H        2.707849934    18.294022657    -5.442042503
 H        1.340877606    19.293135859    -4.912158563
 H        2.262447982    -1.029828684     0.044082797
 H        2.260605151     0.546388777     0.875639446
 H        2.275767581     0.476155195    -0.907455043
 H      -13.054432083    25.012478121     2.587135949
 H      -11.942346807    25.454675030     1.267199874
 H      -11.748144894    26.186999695     2.883343361
 H      -10.704431182    21.442595659     2.342061956
 C      -12.840309035    21.816963402     2.284103291
 C      -11.230490886    22.325034760     0.431357013
 H      -12.087739151    23.415261303     4.927702973
 C      -10.217876615    22.347841958     5.211439598
 C      -10.530938323    24.810708161     5.519741764
 H        3.395292164    27.628506556     0.781226270
 C        1.852901058    28.690945119     1.882069264
 C        2.312252746    26.233598877     2.046986293
 H        1.091003401    29.535069370    -1.030355982
 C        2.960850019    28.989563333    -1.988513840
 C        0.678983006    28.523919537    -2.909937833
 H       -5.508720808    13.724180666    -1.788897083
 C       -4.418196795    12.377568146    -3.103248313
 C       -6.452834910    11.769275035    -1.780976666
 H       -6.000231584    11.878554169     1.212508683
 C       -4.398799479    12.358024527     2.597573548
 C       -5.814708058    14.035227370     1.387033747
 H       -0.135498036    -1.936763690    -1.514326710
 C       -2.144664518    -1.113616991    -1.576162028
 C       -0.185586357    -0.228451064    -2.856037807
 H       -1.775743086    -0.923495071     1.440144245
 C       -0.174189255    -2.373054502     1.633982554
 C       -0.300383711    -0.184073142     2.848583643
 H      -13.020082252    21.672260863     3.357221664
 H      -13.061466679    20.852950872     1.803230416
 H      -13.592428587    22.524822285     1.911373849
 H      -10.206749056    22.577388056     0.119648485
 H      -11.907304740    23.051002762    -0.038259580
 H      -11.458216892    21.350530520    -0.023516815
 H      -10.554240940    21.409095880     4.753573155
 H      -10.359068817    22.227405295     6.295496695
 H       -9.133385246    22.431876687     5.052805513
 H      -11.094335919    25.722862370     5.284957812
 H       -9.463054385    25.034360411     5.382949311
 H      -10.671955462    24.631199922     6.595253214
 H        1.923536072    29.621296266     1.304298117
 H        2.476011498    28.837239273     2.776320927
 H        0.818214260    28.598678952     2.242637013
 H        2.693352961    25.315053456     1.580506479
 H        1.309717527    26.013744202     2.442144679
 H        2.951067773    26.423791913     2.921072173
 H        3.599758405    29.183921824    -1.117716738
 H        2.996870640    29.900283537    -2.603830735
 H        3.436815639    28.198645456    -2.584886915
 H       -0.390497675    28.346807574    -2.730040455
 H        1.041329226    27.715585937    -3.561725829
 H        0.742829565    29.448251568    -3.501049783
 H       -3.514374851    12.991844789    -3.215621930
 H       -5.056403298    12.605146370    -3.968440635
 H       -4.114906746    11.326207292    -3.212429048
 H       -7.112383860    11.972011643    -0.927698541
 H       -6.231193952    10.692782700    -1.787968940
 H       -7.051723114    11.962392811    -2.682929762
 H       -3.945056261    11.357293479     2.625971666
 H       -5.079368364    12.410444728     3.459217831
 H       -3.602110005    13.089905174     2.789337075
 H       -6.455022523    14.276014942     0.528778766
 H       -5.073726428    14.841772548     1.485616093
 H       -6.456978895    14.097426443     2.276985947
 H       -2.525305195    -1.687843752    -0.722063557
 H       -2.435112253    -1.674999803    -2.476162043
 H       -2.696699237    -0.163912770    -1.617509912
 H        0.902368111    -0.122240339    -2.954216970
 H       -0.630432193     0.769473848    -2.979859365
 H       -0.515283892    -0.821159114    -3.721374092
 H       -0.448952208    -2.978381013     0.760565862
 H       -0.635912430    -2.862429140     2.503944156
 H        0.911431265    -2.460654926     1.773626577
 H       -0.660122755     0.854488869     2.877121573
 H        0.778128127    -0.165727995     3.054164650
 H       -0.769146064    -0.694964004     3.701648691

