187   

Si        0.000000000     0.000000000     0.000000000
 C        1.865083262     0.000000000     0.000000000
 C       -0.681760222     1.709888172     0.000000000
 C        0.107975251     2.800299259     0.378579933
 C       -0.417705505     4.092236399     0.375313724
 C       -1.743621141     4.323081590    -0.000209902
 C       -2.535030480     3.228909326    -0.374615609
 C       -2.013086466     1.938397333    -0.373113637
 C       -2.336812514     5.656037595    -0.019046355
 C       -1.691638494     6.786779608     0.314469073
 C       -2.287077893     8.118823688     0.294837840
 C       -3.613815755     8.344990779    -0.081503497
 C       -4.143473257     9.634996314    -0.086214294
 C       -3.359892642    10.726449216     0.301731925
 C       -2.029856130    10.502693549     0.681987043
 C       -1.500414633     9.215154654     0.672755790
Si       -4.034052375    12.438042407     0.304580689
 C       -3.310313415    13.452635352     1.642626434
 C       -2.887820000    12.958005873     2.814098460
 C       -2.308016412    13.765803851     3.887838312
 C       -1.902491512    13.131004920     5.069737812
 C       -1.347576400    13.849621366     6.116962691
 C       -1.229993574    15.253784858     6.038908328
 C       -1.641112321    15.891953923     4.852023645
 C       -2.147224913    15.151070361     3.792572709
 N       -0.667463921    15.987660699     7.099209724
 C       -0.721345377    15.388167726     8.443810727
 C       -0.929691499    17.437554817     7.113536979
 C       -2.153350907    15.216626521     8.975961037
 C       -2.149536628    14.384419634    10.268436885
 N       -3.497706517    14.161886537    10.817906643
 C       -4.207861151    15.286530523    11.273679806
 C       -3.520110536    16.424354450    11.747303051
 C       -4.220592758    17.532782315    12.196499424
 C       -5.621286826    17.538008937    12.242086961
 C       -6.300802453    16.397937159    11.802969101
 C       -5.615479492    15.286061904    11.332868505
 C       -4.260731095    13.155486669    10.059190190
 C       -6.312816791    18.734607106    12.725003026
 C       -7.644775681    18.846649281    12.809640100
Si       -8.566253060    20.309031337    13.402194646
 C       -9.799591260    19.788778860    14.664034067
 C       -9.614571987    18.597807361    15.377250073
 C      -10.544370066    18.198198791    16.333795387
 C      -11.672592149    18.981971471    16.608977065
 C      -11.850314458    20.173323016    15.899663744
 C      -10.924236574    20.574395109    14.937669197
 C      -12.617750939    18.520103870    17.620172496
 C      -13.738338683    19.171093127    17.975625388
 C      -14.682590334    18.707884604    18.987105826
 C      -14.504079709    17.516890279    19.695595460
 C      -15.432195296    17.111523737    20.654658424
 C      -16.564610479    17.887287787    20.921441846
 C      -16.746795029    19.081624673    20.211074424
 C      -15.816286075    19.486092681    19.258019616
Si      -17.798525725    17.365811715    22.184090198
 C      -17.537175195    15.594890749    22.708844244
 C      -17.647986806    18.485146502    23.716570041
 C      -19.538374439    17.582818503    21.442979213
 C       -7.401172038    21.600987540    14.169607621
 C       -9.464108123    21.098668861    11.921724089
 C       -3.619084253    13.258366256    -1.361048556
 C       -5.924733575    12.404005707     0.512817867
 C       -0.650316996    -0.910500289    -1.540671511
 C       -0.620562829    -0.918839011     1.547081792
 H        1.152119774     2.682384830     0.681292626
 H        0.219046138     4.924313405     0.670356787
 H       -3.570464236     3.386620613    -0.670467105
 H       -2.678508209     1.124640007    -0.674705744
 H       -3.383898644     5.685618876    -0.334579907
 H       -0.644459337     6.758017608     0.629609247
 H       -4.246693555     7.511202361    -0.379128885
 H       -5.185129872     9.749263595    -0.398179034
 H       -1.370600970    11.320442472     0.993191597
 H       -0.463879509     9.061053559     0.966895745
 H       -3.257339666    14.529785378     1.424685980
 H       -2.938674906    11.887248918     3.058867179
 H       -2.011318029    12.049634448     5.165620593
 H       -1.012693299    13.316799177     7.001730239
 H       -1.555986739    16.968463686     4.743971739
 H       -2.439322288    15.669423976     2.877952986
 H       -0.497642687    17.894073758     8.019597580
 H       -2.003236422    17.686878082     7.079045532
 H       -0.424631710    17.905493124     6.249096611
 H       -3.590972036    12.349294364     9.715864307
 H       -4.779210033    13.571545380     9.179323921
 H       -5.006534186    12.687303274    10.726995935
 H       -2.434664175    16.446603801    11.756304910
 H       -3.666720612    18.409494650    12.533882479
 H       -7.391915301    16.372775723    11.828676407
 H       -6.184095273    14.421829885    11.004473222
 H       -5.628226681    19.540845482    13.018607673
 H       -8.304072217    18.018348668    12.499420559
 H       -8.749370001    17.948311443    15.207184516
 H      -10.388145303    17.266449709    16.874353664
 H      -12.718398086    20.800081930    16.094431035
 H      -11.117018880    21.514498648    14.413840563
 H      -12.351552531    17.570878160    18.094769954
 H      -14.005104933    20.119934365    17.501308572
 H      -13.633110943    16.892714116    19.504272788
 H      -15.237852107    16.170481767    21.176682071
 H      -17.613534390    19.727792670    20.376564809
 H      -15.974526592    20.417140507    18.717199744
 H       -0.190222176    14.408941506     8.411798656
 H       -0.124211951    16.026068628     9.134513897
 H       -2.620158897    16.203839320     9.155626592
 H       -2.789948188    14.729537402     8.210994479
 H       -1.680835272    13.389403376    10.089317186
 H       -1.522711420    14.871884163    11.049508217
 H        2.262688257    -1.029435134    -0.050259698
 H        2.276112674     0.470973030     0.909986315
 H        2.260111756     0.551506702    -0.872666358
 H      -18.307561880    15.276754569    23.433795863
 H      -16.551983356    15.450579239    23.185940374
 H      -17.595858412    14.912121034    21.841810101
 H      -18.376700871    18.068517680    24.470567978
 C      -16.240433564    18.444479804    24.339466835
 C      -18.026068283    19.953001315    23.449556699
 H      -19.635789516    18.680727516    21.199083792
 C      -19.724384000    16.792424584    20.135112900
 C      -20.671287605    17.214282306    22.417260088
 H       -6.613701476    21.811631429    13.389389125
 C       -8.102661021    22.928499495    14.508430634
 C       -6.696882929    21.077779283    15.434940495
 H       -9.993592975    22.008506097    12.327986948
 C       -8.503392841    21.562468381    10.812741072
 C      -10.524386848    20.165984687    11.309731538
 H       -4.057663967    14.296730038    -1.315556786
 C       -2.101652362    13.389520123    -1.583552662
 C       -4.239984639    12.529061644    -2.565012594
 H       -6.325444287    11.813510138    -0.361059797
 C       -6.357185265    11.695718216     1.809239736
 C       -6.564376572    13.803386106     0.472230621
 H       -1.774913039    -0.920649798    -1.443382606
 C       -0.297513858    -0.180297714    -2.849181055
 C       -0.173923701    -2.370787551    -1.637223823
 H       -0.137008589    -1.937617993     1.513018645
 C       -0.190827178    -0.230164491     2.855436768
 C       -2.146967647    -1.115750462     1.571287185
 H      -15.922469487    17.436380595    24.635013632
 H      -16.215254487    19.054697719    25.253727016
 H      -15.467303726    18.855311540    23.674137405
 H      -19.050080388    20.078744069    23.075861687
 H      -17.344905046    20.446919427    22.742337256
 H      -17.968097347    20.531054107    24.383486506
 H      -18.982051044    17.047187683    19.365087956
 H      -20.708380852    17.013400864    19.697590995
 H      -19.688678996    15.704778805    20.281661800
 H      -20.646109316    17.789985795    23.351522084
 H      -20.679164954    16.148417956    22.681205019
 H      -21.646853627    17.422832726    21.954378181
 H       -8.544675096    23.423287477    13.634380674
 H       -7.376974442    23.640202402    14.928401358
 H       -8.891167104    22.815092118    15.265890523
 H       -6.138160262    20.145609426    15.274370468
 H       -7.393799581    20.902316791    16.267385198
 H       -5.967902296    21.817312685    15.794704009
 H       -7.765992792    22.299602823    11.155471245
 H       -9.068373037    22.046092691    10.003173233
 H       -7.952502319    20.731475037    10.349189410
 H      -11.274512660    19.822843986    12.036239320
 H      -10.088989150    19.275191711    10.836446412
 H      -11.080100341    20.693157804    10.521314730
 H       -1.590580338    13.950185146    -0.788897266
 H       -1.902946862    13.930527792    -2.519544730
 H       -1.598692704    12.416331899    -1.679299785
 H       -5.335648543    12.480023093    -2.527319047
 H       -3.862977528    11.503234224    -2.685500144
 H       -3.988618929    13.057858911    -3.495890781
 H       -5.986889297    10.664238793     1.888669792
 H       -7.453339718    11.634171607     1.858655327
 H       -6.036991514    12.231271111     2.714891695
 H       -6.366741316    14.346356785    -0.460738307
 H       -6.245680136    14.443064929     1.307271945
 H       -7.657861890    13.718703328     0.551288892
 H       -0.656876150     0.858409530    -2.877007310
 H       -0.765136650    -0.689935466    -3.703599818
 H        0.781293845    -0.162032648    -3.053257620
 H       -0.453348543    -2.977980185    -0.766560088
 H        0.912241867    -2.459131802    -1.772076086
 H       -0.631865204    -2.857652926    -2.510578997
 H        0.896841092    -0.122472969     2.955355276
 H       -0.520977152    -0.824463553     3.719569975
 H       -0.637350922     0.766922466     2.979630340
 H       -2.527017884    -1.682497726     0.711945764
 H       -2.699149884    -0.166508448     1.620309460
 H       -2.437912048    -1.685182613     2.466063748

