187   

Si        0.000000000     0.000000000     0.000000000
 C        1.865105060     0.000000000     0.000000000
 C       -0.680357689     1.710454904     0.000000000
 C        0.111590388     2.801613349    -0.371651322
 C       -0.413804716     4.093690304    -0.368179311
 C       -1.741504207     4.324198078     0.001454740
 C       -2.535172400     3.229252327     0.368863800
 C       -2.013720685     1.938572187     0.366269342
 C       -2.334293196     5.657274710     0.020205265
 C       -1.687466730     6.788646054    -0.307762005
 C       -2.283093098     8.120639989    -0.288034223
 C       -3.611551154     8.345962663     0.082443255
 C       -4.141343132     9.635983325     0.087474660
 C       -3.356465675    10.727876727    -0.296006084
 C       -2.024825377    10.504773728    -0.671546064
 C       -1.495129067     9.217362773    -0.662069247
Si       -4.027233421    12.440901524    -0.299619801
 C       -3.319313347    13.447954603    -1.650453291
 C       -2.911393040    12.949932788    -2.825971410
 C       -2.344372031    13.754141059    -3.908832269
 C       -1.953761873    13.114095815    -5.094557028
 C       -1.411804040    13.828234479    -6.149634139
 C       -1.196437957    15.220079039    -6.034563490
 C       -1.587554677    15.863410284    -4.844344459
 C       -2.170466220    15.137282735    -3.813941075
 N       -0.646850202    15.923300862    -7.114607282
 C        0.388758809    15.252571665    -7.916669787
 C       -0.460175378    17.371445301    -6.960444006
 C        1.552721304    14.634136391    -7.119864136
 C        2.580605220    15.651804899    -6.594362800
 N        3.412023513    16.329413396    -7.609933859
 C        2.821081762    17.477861462    -8.196817460
 C        2.540976759    18.564613706    -7.343779991
 C        1.964182624    19.717049295    -7.850953144
 C        1.683036926    19.840272350    -9.220616339
 C        1.990862051    18.771977120   -10.065809261
 C        2.564443075    17.605794357    -9.569611201
 C        4.081715506    15.404177072    -8.536504594
 C        1.072632397    21.080989235    -9.703262120
 C        0.758723106    21.315545238   -10.984316824
Si       -0.003712833    22.866966933   -11.582863999
 C        0.487717408    24.313254464   -10.559054865
 C        1.771348680    24.364328714    -9.999365394
 C        2.159230593    25.452118923    -9.221780737
 C        1.281034034    26.519946353    -8.993789816
 C        0.004463004    26.469803498    -9.560264701
 C       -0.388553411    25.380143959   -10.336606840
 C        1.733124424    27.637841418    -8.171947688
 C        0.990884288    28.718024356    -7.874891154
 C        1.441941917    29.836380613    -7.053223976
 C        2.717586404    29.889141343    -6.485661424
 C        3.107040866    30.978539746    -5.706316095
 C        2.228308331    32.042890888    -5.481836704
 C        0.948231127    31.992471025    -6.050391331
 C        0.560954038    30.901951018    -6.823920783
Si        2.726147227    33.488247305    -4.455888175
 C        4.561814791    33.494865310    -4.124767281
 C        2.217433566    35.074305096    -5.377302084
 C        1.805139275    33.432699130    -2.791058301
 C        0.558055090    23.166143487   -13.374739397
 C       -1.894161111    22.653481668   -11.560698852
 C       -5.920764890    12.408530844    -0.485241778
 C       -3.591924370    13.268476224     1.357412578
 C       -0.620272184    -0.917711704    -1.547880361
 C       -0.652623750    -0.910296927     1.539671754
 H        1.157304231     2.683951049    -0.668715463
 H        0.224620997     4.926247081    -0.657982834
 H       -3.572113256     3.386685944     0.659740126
 H       -2.681228549     1.124326616     0.661941655
 H       -3.383067500     5.686493086     0.330275306
 H       -0.638861382     6.760628748    -0.617749052
 H       -4.245792096     7.511609254     0.375659874
 H       -5.184263513     9.749605785     0.395292507
 H       -1.365325852    11.322985995    -0.980533235
 H       -0.457705591     9.063707495    -0.952676339
 H       -3.263987450    14.526148062    -1.437867873
 H       -2.964963701    11.878133172    -3.066256454
 H       -2.090790603    12.036516226    -5.194764222
 H       -1.156502932    13.313172563    -7.070814842
 H       -1.441520332    16.930936692    -4.717305346
 H       -2.479266918    15.661611951    -2.908474497
 H       -0.088195322    17.807797599    -7.906386603
 H        0.246465077    17.645820804    -6.160396243
 H       -1.438529538    17.843917713    -6.755246774
 H        4.628199643    14.644813361    -7.950306161
 H        4.832354899    15.964099664    -9.123163735
 H        3.405883116    14.885850994    -9.234227954
 H        2.790559477    18.494206388    -6.286674822
 H        1.743096750    20.546681752    -7.177833903
 H        1.784122152    18.845464859   -11.134175471
 H        2.794175539    16.794593615   -10.253729178
 H        0.901605269    21.817603158    -8.905161747
 H        0.932128750    20.559095590   -11.764586826
 H        2.500990222    23.560991561   -10.147717115
 H        3.158322397    25.471811175    -8.790194509
 H       -0.696701612    27.286631667    -9.399679262
 H       -1.398950014    25.398831571   -10.754059067
 H        2.755543425    27.544000094    -7.794175171
 H       -0.031342101    28.811786246    -8.252947051
 H        3.421573854    29.074927176    -6.647766662
 H        4.117642863    30.963009029    -5.288888147
 H        0.219510875    32.795922934    -5.909808934
 H       -0.437625000    30.880370497    -7.256112119
 H       -0.119585377    14.451632459    -8.506515982
 H        0.781772692    15.972998816    -8.670190043
 H        1.148865071    14.067681837    -6.253725533
 H        2.056548839    13.876646680    -7.748597618
 H        2.062470591    16.419491584    -5.977223117
 H        3.288723079    15.130793265    -5.905477972
 H        2.263258270    -1.029173353     0.050955828
 H        2.260185659     0.552397545     0.872082968
 H        2.275514363     0.470344350    -0.910576960
 H        4.858620785    34.386039213    -3.543249214
 H        5.134875163    33.509937606    -5.069674674
 H        4.877530481    32.604721972    -3.552839235
 H        1.095980097    35.017610641    -5.494153291
 C        2.545868352    36.364662714    -4.605416435
 C        2.833146290    35.161171062    -6.785520370
 H        2.204642001    34.302194580    -2.192850722
 C        0.281207423    33.604633904    -2.921186240
 C        2.089790042    32.140801177    -2.003033139
 H        0.225818285    22.262158160   -13.962381114
 C       -0.085415167    24.411643336   -14.008414791
 C        2.088637705    23.277338772   -13.494543719
 H       -2.322630395    23.606404042   -11.986478886
 C       -2.381261895    21.483633974   -12.434334503
 C       -2.444845256    22.473047794   -10.134828867
 H       -6.312145894    11.819411359     0.393603464
 C       -6.558214061    13.808766513    -0.438675941
 C       -6.368745500    11.700191080    -1.776265012
 H       -4.030939118    14.306715828     1.312820948
 C       -4.197944004    12.544320603     2.572086376
 C       -2.071859607    13.401282288     1.561092727
 H       -0.136851906    -1.936656131    -1.514772282
 C       -2.146703503    -1.114126840    -1.572612882
 C       -0.190153709    -0.228163671    -2.855685760
 H       -1.777155896    -0.919239913     1.441190146
 C       -0.177899591    -2.371206260     1.635734086
 C       -0.300346735    -0.181344563     2.849015010
 H        2.077760716    36.409004134    -3.613542491
 H        2.173492592    37.238437358    -5.159898341
 H        3.624519814    36.522573035    -4.473807569
 H        2.595737970    34.293218933    -7.417250050
 H        3.925687074    35.270066298    -6.770513245
 H        2.441731038    36.041673676    -7.314741755
 H       -0.012049998    34.546032349    -3.402709243
 H       -0.181813076    33.614220777    -1.923557250
 H       -0.195646788    32.780780474    -3.470495093
 H        3.155494391    31.983428399    -1.792723686
 H        1.714206749    31.240046832    -2.509480153
 H        1.586232474    32.176608517    -1.026286986
 H       -1.181334088    24.365823497   -14.044960730
 H        0.251384455    24.520773290   -15.049667270
 H        0.193805545    25.344805094   -13.498104674
 H        2.621825497    22.394940893   -13.115438210
 H        2.494847679    24.158671762   -12.977195389
 H        2.377516226    23.382014242   -14.550091533
 H       -2.092677065    21.576590377   -13.489029533
 H       -3.480059408    21.437945064   -12.421212695
 H       -2.030659421    20.506090608   -12.074582761
 H       -2.186724524    23.299456403    -9.458158073
 H       -2.105646699    21.540274307    -9.660928492
 H       -3.542790939    22.425682369   -10.157255211
 H       -6.347514699    14.353590068     0.490257878
 H       -7.652714814    13.725316284    -0.503137083
 H       -6.249795438    14.446114604    -1.279456577
 H       -6.002266840    10.667650436    -1.858742158
 H       -6.056355085    12.233830620    -2.686015493
 H       -7.465485556    11.641928278    -1.814563141
 H       -5.293950217    12.493935933     2.547085610
 H       -3.936519787    13.077834722     3.497435080
 H       -3.818579791    11.519468186     2.692945257
 H       -1.570897316    13.957056297     0.756696092
 H       -1.567732087    12.428815993     1.656864115
 H       -1.862217087    13.948354746     2.491120459
 H       -2.525974993    -1.687459335    -0.717278679
 H       -2.438427210    -1.676655156    -2.471499566
 H       -2.698997379    -0.164605572    -1.614247471
 H        0.897553642    -0.120827758    -2.955308501
 H       -0.636233689     0.769261669    -2.978947174
 H       -0.520406375    -0.821307320    -3.720507507
 H       -0.454263532    -2.976670889     0.762910079
 H       -0.639913527    -2.859248178     2.506308070
 H        0.907624941    -2.460610633     1.774879339
 H       -0.657644762     0.858098635     2.876705303
 H        0.778169730    -0.165413169     3.054809463
 H       -0.770475899    -0.690432828     3.702426612

