187   

Si        0.000000000     0.000000000     0.000000000
 C        1.865270752     0.000000000     0.000000000
 C       -0.679517832     1.710763946     0.000000000
 C        0.119305592     2.803693370     0.350892935
 C       -0.405226484     4.096114353     0.347710928
 C       -1.739232112     4.324962392     0.000585606
 C       -2.539727007     3.228208242    -0.346104469
 C       -2.018722970     1.937294353    -0.345274238
 C       -2.330926446     5.658639383    -0.016776388
 C       -1.675835538     6.790799032     0.291662264
 C       -2.267815337     8.124435481     0.274216065
 C       -3.602677797     8.351331569    -0.073364915
 C       -4.128081953     9.642695497    -0.076907624
 C       -3.323790779    10.736843650     0.257979135
 C       -1.985731361    10.513721735     0.606936085
 C       -1.467423910     9.221354580     0.619248611
Si       -4.002998849    12.447235566     0.257798092
 C       -2.622546562    13.633193501     0.093895058
 C       -2.397040253    14.704828188     0.864135604
 C       -1.263018216    15.614213375     0.670605179
 C       -1.117096462    16.710155099     1.534434757
 C       -0.059965743    17.595305869     1.388003892
 C        0.888371166    17.390615767     0.372547910
 C        0.750908585    16.302116876    -0.494847335
 C       -0.323231779    15.430138203    -0.346253277
 N        1.949955352    18.351711373     0.289426007
 C        3.011573789    18.081196387     1.283268246
 C        2.477074702    18.560888049    -1.071183904
 C        3.847527324    16.815520308     1.003977257
 C        4.510217156    16.265680093     2.281141753
 N        3.803668602    15.125451264     2.900626876
 C        2.520179324    15.402839253     3.425613376
 C        2.364739566    16.524727658     4.266340701
 C        1.123820346    16.830129592     4.800489275
 C        0.018468791    15.994776884     4.585192477
 C        0.185406227    14.861361474     3.785162502
 C        1.415416722    14.561572749     3.212172568
 C        3.928885944    13.890042005     2.107472574
 C       -1.269730917    16.365471501     5.173178250
 C       -2.389403552    15.644819741     5.033427940
Si       -4.023927240    16.053343216     5.740903489
 C       -5.237364510    15.928797081     4.362253287
 C       -4.897963646    16.486607351     3.121275661
 C       -5.783768492    16.416224466     2.050995614
 C       -7.034209237    15.800011704     2.196983402
 C       -7.371554336    15.249539312     3.435952402
 C       -6.481628194    15.311146295     4.508896191
 C       -7.926234109    15.752392300     1.044632878
 C       -9.145797272    15.188497959     1.038005172
 C      -10.028552131    15.147924075    -0.122973850
 C       -9.675918837    15.703495533    -1.355664138
 C      -10.549394994    15.643223436    -2.441141629
 C      -11.792860477    15.015368289    -2.319100654
 C      -12.147576070    14.454306948    -1.084679799
 C      -11.276190945    14.522044327    -0.001096263
Si      -12.958356555    14.926433646    -3.741290720
 C      -12.139558421    15.448895868    -5.333822289
 C      -13.583430739    13.133864428    -3.879239751
 C      -14.447636983    16.067181994    -3.419958913
 C       -4.424758198    14.850884776     7.156216334
 C       -4.061362760    17.824740745     6.431810801
 C       -5.188875763    12.665507698    -1.211468246
 C       -4.952181057    12.732689569     1.876460791
 C       -0.651977436    -0.907985478    -1.541254263
 C       -0.619414361    -0.919519019     1.547111532
 H        1.169733132     2.687627661     0.631613616
 H        0.238156311     4.930032742     0.622264786
 H       -3.581737334     3.384182631    -0.618821841
 H       -2.691238536     1.121276056    -0.624070719
 H       -3.385057930     5.687596729    -0.307704057
 H       -0.621826064     6.762219704     0.582930937
 H       -4.245739885     7.516084374    -0.343780233
 H       -5.180175690     9.758754715    -0.351901321
 H       -1.313145135    11.333389532     0.881731113
 H       -0.427180784     9.064902535     0.897569556
 H       -1.952719023    13.390941521    -0.749196993
 H       -3.044435193    14.984888891     1.706616064
 H       -1.835353709    16.866780597     2.341439542
 H        0.047578661    18.448448997     2.056126660
 H        1.474250844    16.132544487    -1.286407950
 H       -0.418457310    14.589777709    -1.034514452
 H        3.127860346    19.452260957    -1.057562026
 H        1.636520228    18.777327689    -1.753540877
 H        3.051366913    17.717265480    -1.480667044
 H        4.986930264    13.734958643     1.836817480
 H        3.329668616    13.886773085     1.182704713
 H        3.627699269    13.028612447     2.731054380
 H        3.220557108    17.154105945     4.495143935
 H        1.015088434    17.721967454     5.417893145
 H       -0.661261367    14.199154148     3.589687019
 H        1.495283610    13.685191627     2.575910126
 H       -1.230376987    17.300030349     5.747332090
 H       -2.390947862    14.701976296     4.459034440
 H       -3.937916761    16.987314585     2.952558932
 H       -5.499646635    16.844930996     1.090706296
 H       -8.335808857    14.765003109     3.574292515
 H       -6.800202179    14.863535596     5.453593301
 H       -7.534762322    16.237755142     0.144153100
 H       -9.546426469    14.711697041     1.936662052
 H       -8.711712149    16.193837307    -1.479143885
 H      -10.219688826    16.098716453    -3.379128769
 H      -13.105560491    13.949395091    -0.931405043
 H      -11.570095053    14.081873410     0.949826793
 H        3.668377124    18.976950623     1.324469553
 H        2.517780202    18.003773232     2.280787527
 H        3.200050996    16.036867041     0.553466053
 H        4.617273520    17.035277426     0.243792800
 H        5.548468260    15.929483295     2.055738906
 H        4.621482115    17.067881129     3.044276021
 H        2.263261694    -1.029469099    -0.044577102
 H        2.275638955     0.475961769     0.907733251
 H        2.260283983     0.546911619    -0.875460071
 H      -12.833807326    15.354539564    -6.187941578
 H      -11.258496101    14.818464868    -5.552096744
 H      -11.801805439    16.499413663    -5.294765563
 H      -14.099286572    12.910317119    -2.900284442
 C      -14.606806085    12.925337307    -5.009518218
 C      -12.435925282    12.121486016    -4.047948087
 H      -15.075799427    16.016787769    -4.356133911
 C      -15.324314142    15.624977902    -2.234830881
 C      -14.030271965    17.533574797    -3.203997582
 H       -5.458740199    15.127533881     7.514344522
 C       -4.452846781    13.377017877     6.715132307
 C       -3.457247453    14.991492156     8.345811409
 H       -3.232690529    17.876033719     7.196255000
 C       -3.787310951    18.893627342     5.357876827
 C       -5.384487066    18.165808599     7.140073282
 H       -6.022478683    11.922043516    -1.047178723
 C       -5.813163508    14.069198161    -1.277094702
 C       -4.525550022    12.345353265    -2.562893110
 H       -5.172501086    13.842006899     1.922303094
 C       -6.295836408    11.987200947     1.946423140
 C       -4.108767695    12.359517467     3.108492457
 H       -1.776666992    -0.914176902    -1.444525697
 C       -0.296283019    -0.178958392    -2.849583488
 C       -0.180934356    -2.370090251    -1.637793132
 H       -0.133480233    -1.937177051     1.513414576
 C       -0.191610702    -0.229398816     2.855357688
 C       -2.145325527    -1.120265672     1.571728410
 H      -15.494276906    13.564542811    -4.915949083
 H      -14.972735980    11.888264257    -4.997384145
 H      -14.181092380    13.088109294    -6.008555079
 H      -11.688730666    12.174351297    -3.243167851
 H      -11.903173391    12.231463718    -5.001795380
 H      -12.832379013    11.096246457    -4.031454097
 H      -15.726820492    14.610074294    -2.344379245
 H      -16.194871212    16.291076230    -2.143648014
 H      -14.797631113    15.678179450    -1.271685162
 H      -13.468946440    17.956478771    -4.047132618
 H      -13.425629643    17.676565121    -2.296810254
 H      -14.922183302    18.164794190    -3.081595236
 H       -5.180924530    13.174615606     5.917422204
 H       -4.741285530    12.735888333     7.560577007
 H       -3.472353053    13.012974423     6.376367572
 H       -3.448687407    15.996658115     8.786257018
 H       -2.420575388    14.731434415     8.087238208
 H       -3.752294662    14.306806647     9.153991677
 H       -2.839858113    18.746820997     4.821421179
 H       -3.727217884    19.887389237     5.823591199
 H       -4.588280984    18.956301332     4.607091694
 H       -5.607979463    17.507381336     7.989260026
 H       -6.250737035    18.144634253     6.463760117
 H       -5.341120497    19.186235337     7.547969246
 H       -6.353755023    14.341353068    -0.359174241
 H       -6.550525419    14.114896027    -2.091351164
 H       -5.075450428    14.857581087    -1.478958558
 H       -4.099089142    11.333722528    -2.609620196
 H       -3.729888191    13.054124564    -2.828642899
 H       -5.270312876    12.401470511    -3.369569475
 H       -6.990796814    12.267550498     1.143619914
 H       -6.808370428    12.234256025     2.888133977
 H       -6.184381111    10.895186295     1.932035703
 H       -3.159374304    12.908681015     3.170258979
 H       -3.877228220    11.286576355     3.160909500
 H       -4.666293648    12.599314692     4.025766097
 H       -0.651598002     0.861177942    -2.877086692
 H       -0.766098041    -0.686502430    -3.704019612
 H        0.782564881    -0.164965744    -3.053610774
 H       -0.463433587    -2.976276045    -0.767436211
 H        0.904969070    -2.462404452    -1.771705351
 H       -0.640011816    -2.854954277    -2.511618263
 H        0.895733540    -0.118869581     2.955462512
 H       -0.520603819    -0.824027756     3.719657107
 H       -0.640495088     0.766794241     2.978907024
 H       -2.524254331    -1.687167857     0.712053610
 H       -2.699714771    -0.172377377     1.622039505
 H       -2.434398344    -1.691142691     2.466175951

