187   

Si        0.000000000     0.000000000     0.000000000
 C        1.864942493     0.000000000     0.000000000
 C       -0.685306993     1.708356661     0.000000000
 C        0.081708487     2.793245876    -0.436650510
 C       -0.447528044     4.083894797    -0.432476234
 C       -1.754279261     4.318635753     0.003017169
 C       -2.523419216     3.229570070     0.434779004
 C       -1.998559884     1.940405672     0.430672490
 C       -2.352332617     5.649090141     0.026172906
 C       -1.733084168     6.778028320    -0.358825528
 C       -2.341176194     8.104467420    -0.331486198
 C       -1.586935263     9.203814293    -0.760703427
 C       -2.128117648    10.487690271    -0.751263425
 C       -3.433000252    10.704227551    -0.294788526
 C       -4.187724484     9.606919217     0.138227003
 C       -3.648242004     8.322439491     0.114687825
Si       -4.192539357    12.379894338    -0.262524378
 C       -5.240969774    12.602945660     1.218451842
 C       -5.015922590    11.990586711     2.389176092
 C       -5.846111552    12.159597288     3.581941639
 C       -5.503168507    11.460609300     4.748438614
 C       -6.253833550    11.583603126     5.905607681
 C       -7.423164723    12.375609187     5.919304095
 C       -7.770739437    13.073741268     4.746119770
 C       -6.977416635    12.979223444     3.610208512
 N       -8.178534852    12.495233736     7.096061310
 C       -8.171082887    11.356314338     8.028774775
 C       -9.493474394    13.147768877     6.990475903
 C       -8.710044664    10.046653098     7.417066232
 C       -9.256449743     9.095834804     8.498428194
 N      -10.732648768     9.101866420     8.631416493
 C      -11.274609798    10.399163939     8.846223747
 C      -10.900440618    11.070421106    10.027609225
 C      -11.394494984    12.336365186    10.294135430
 C      -12.304830491    12.953907033     9.421869961
 C      -12.692105009    12.273256250     8.266132787
 C      -12.190684356    11.008123058     7.977213039
 C      -11.390365100     8.302900774     7.581992696
 C      -12.795405746    14.293324529     9.752012410
 C      -13.663566398    14.982154580     8.999570536
Si      -14.269285826    16.655901342     9.423061414
 C      -13.004047483    17.593553736    10.373105557
 C      -11.648917722    17.413170617    10.069983900
 C      -10.667482343    18.109665118    10.772550393
 C      -11.016313413    19.010163844    11.783447525
 C      -12.373077243    19.194938195    12.078900433
 C      -13.356775681    18.497256076    11.381571815
 C      -10.021904461    19.760104095    12.543877260
 C       -8.694044313    19.672453139    12.357547637
 C       -7.695958520    20.420036829    13.115128851
 C       -8.035802944    21.318577291    14.129575321
 C       -7.047556642    22.012190581    14.828265831
 C       -5.695456009    21.816857588    14.529930564
 C       -5.352155243    20.915731715    13.512820534
 C       -6.340648373    20.228965209    12.813841848
Si       -4.378732460    22.724194291    15.442415728
 C       -5.050038153    23.551647571    16.973500528
 C       -3.013964712    21.482241532    15.910026493
 C       -3.624646176    24.054218883    14.308532303
 C      -14.640619319    17.585079738     7.805919774
 C      -15.877371879    16.498105674    10.424855305
 C       -2.845371635    13.723226456    -0.274339130
 C       -5.278299336    12.593256792    -1.809916461
 C       -0.622665108    -0.913706639    -1.549440658
 C       -0.647091638    -0.918855784     1.537352437
 H        1.110391428     2.671687700    -0.786968555
 H        0.170735671     4.911824224    -0.774541041
 H       -3.544224411     3.390192273     0.776419287
 H       -2.647367900     1.130796642     0.776355884
 H       -3.383493245     5.678746364     0.391464769
 H       -0.703005139     6.752378085    -0.725063836
 H       -0.567076019     9.056509896    -1.110290307
 H       -1.495119541    11.305128451    -1.106571946
 H       -5.213353147     9.717444716     0.507400058
 H       -4.256689843     7.485673175     0.452702066
 H       -6.078900503    13.303699190     1.090670307
 H       -4.179867009    11.292467842     2.541841793
 H       -4.621096124    10.818534268     4.751759579
 H       -5.935693205    11.060841738     6.802523703
 H       -8.656456134    13.699759352     4.715683564
 H       -7.259662205    13.544619223     2.720992721
 H       -9.992271703    13.162911695     7.978033236
 H      -10.174418293    12.651557222     6.280669919
 H       -9.354692620    14.200910400     6.686700758
 H      -11.026724505     7.262439737     7.652504773
 H      -11.213837305     8.663702770     6.556843714
 H      -12.478122006     8.274226680     7.769343320
 H      -10.229867481    10.582905016    10.732420542
 H      -11.084420338    12.852088653    11.204236279
 H      -13.400921810    12.731095366     7.574977370
 H      -12.506676032    10.509999236     7.065518267
 H      -12.371954531    14.690892124    10.685858409
 H      -14.083303065    14.559444207     8.074561382
 H      -11.315335013    16.724817173     9.285542804
 H       -9.620262807    17.946904286    10.522882543
 H      -12.665872345    19.891961585    12.861776972
 H      -14.398622237    18.683329826    11.655668349
 H      -10.434858496    20.426341930    13.306617173
 H       -8.282377202    19.005942076    11.593475160
 H       -9.080856797    21.485802675    14.383607867
 H       -7.374881361    22.702488187    15.610643551
 H       -4.311665257    20.722479735    13.236403269
 H       -6.054509143    19.534711981    12.025764324
 H       -7.131575623    11.211824227     8.401033262
 H       -8.769936978    11.644606154     8.924527637
 H       -9.500228806    10.277304653     6.676701806
 H       -7.912907291     9.550552553     6.833285758
 H       -8.935969299     8.051221375     8.288305014
 H       -8.829023384     9.343020683     9.496184250
 H        2.262537981    -1.029177620     0.054532744
 H        2.259774573     0.555521070     0.870269313
 H        2.276154754     0.467476913    -0.911686118
 H       -4.246547752    24.060116127    17.535929153
 H       -5.513219301    22.812610429    17.652226179
 H       -5.814400618    24.309439778    16.727687374
 H       -2.628578878    21.064639741    14.934544492
 C       -1.826625795    22.124075703    16.649522470
 C       -3.549455199    20.305816091    16.746144493
 H       -2.872611738    24.605645696    14.943850144
 C       -2.885414531    23.478246750    13.087620750
 C       -4.671177317    25.070859502    13.816522207
 H      -15.429528562    16.980457182     7.272246800
 C      -15.198086969    18.999996035     8.038118255
 C      -13.407475146    17.676684541     6.889001169
 H      -16.222671277    17.552874771    10.628920056
 C      -16.999340034    15.771421563     9.662054730
 C      -15.657315313    15.794940939    11.776269800
 H       -2.238777990    13.549805624    -1.209594181
 C       -3.414290107    15.152225320    -0.336157422
 C       -1.902498355    13.616058159     0.937672687
 H       -5.711286298    13.633044935    -1.744886678
 C       -4.485178066    12.486249840    -3.124029371
 C       -6.446614523    11.591716171    -1.848108938
 H       -0.143659089    -1.934613469    -1.517602269
 C       -2.150057421    -1.103027067    -1.573089137
 C       -0.190277792    -0.223901041    -2.856222925
 H       -1.771787406    -0.930258423     1.441926530
 C       -0.169006882    -2.379168030     1.625812890
 C       -0.292593646    -0.195582083     2.849298038
 H       -1.343464718    22.928677553    16.080223313
 H       -1.048451795    21.369401013    16.835328471
 H       -2.102068504    22.528441550    17.632542857
 H       -4.368152876    19.761197439    16.254332633
 H       -3.905266736    20.611416249    17.738966123
 H       -2.750739056    19.569922738    16.916766230
 H       -2.065537849    22.799318444    13.354026215
 H       -2.430842242    24.293251051    12.505485000
 H       -3.553970882    22.946013950    12.396328758
 H       -5.189404439    25.593015728    14.631043600
 H       -5.437443643    24.616882513    13.171742502
 H       -4.184384052    25.850334928    13.212877229
 H      -16.134695786    19.011490618     8.610138230
 H      -15.422006319    19.479186071     7.073889146
 H      -14.485325606    19.662667051     8.550065539
 H      -12.982060015    16.697823778     6.629373579
 H      -12.600315417    18.287379841     7.319251871
 H      -13.680151619    18.156582447     5.938297843
 H      -17.271337295    16.258319487     8.716944084
 H      -17.915264276    15.752582916    10.270634899
 H      -16.757053629    14.722283971     9.442189019
 H      -14.905661725    16.287037370    12.409052636
 H      -15.356842130    14.742729644    11.666230622
 H      -16.591385676    15.789356713    12.355631612
 H       -4.034167125    15.336760309    -1.222614732
 H       -2.592698736    15.881753374    -0.379839983
 H       -4.009084894    15.413909063     0.550300059
 H       -1.411488415    12.637245829     1.026151861
 H       -2.411904998    13.815583718     1.892072527
 H       -1.096898264    14.359102907     0.856778060
 H       -3.685933589    13.233091037    -3.212992578
 H       -5.153860309    12.648825679    -3.981623780
 H       -4.034009739    11.494603055    -3.272012424
 H       -7.094736846    11.643380066    -0.962620112
 H       -6.112000373    10.549816818    -1.955117991
 H       -7.091015115    11.797104997    -2.714504610
 H       -2.530856738    -1.678658444    -0.720010925
 H       -2.445557260    -1.659752652    -2.474313381
 H       -2.698127027    -0.150725410    -1.608890613
 H        0.897850323    -0.121636089    -2.956492269
 H       -0.631934113     0.775762544    -2.977503734
 H       -0.523997712    -0.814016285    -3.721806224
 H       -0.446331870    -2.981351710     0.751011481
 H       -0.627768682    -2.871925472     2.495405566
 H        0.917082226    -2.466881179     1.761665369
 H       -0.650846012     0.843286251     2.882987729
 H        0.786526890    -0.179261856     3.052162134
 H       -0.759569890    -0.709514090     3.701471092

