187   

Si        0.000000000     0.000000000     0.000000000
 C        1.864493932     0.000000000     0.000000000
 C       -0.671519659     1.712904209     0.000000000
 C        0.138037501     2.802727723    -0.335729366
 C       -0.378829307     4.098145070    -0.333281737
 C       -1.715049828     4.331769766     0.000682067
 C       -2.524335140     3.237510471     0.334490565
 C       -2.012267283     1.943849602     0.334684829
 C       -2.302784352     5.666106441     0.018051771
 C       -1.648140469     6.802059819    -0.277068973
 C       -2.259639136     8.126575794    -0.252290055
 C       -3.601618203     8.313516823     0.088128554
 C       -4.160339435     9.588566931     0.103948538
 C       -3.377724271    10.712074160    -0.187488076
 C       -2.030852131    10.530856459    -0.521168761
 C       -1.482071553     9.250037319    -0.561311072
Si       -4.157537111    12.370092306    -0.154155428
 C       -3.145643830    13.721810814     0.531080103
 C       -2.927237450    14.910346749    -0.044363523
 C       -2.100809043    15.953681656     0.564185881
 C       -1.930436268    17.168222201    -0.116515864
 C       -1.157172613    18.182625092     0.422083876
 C       -0.594815474    18.035711813     1.707193517
 C       -0.769790937    16.825899319     2.394599749
 C       -1.489763516    15.790477589     1.808845313
 N        0.188596871    19.103186701     2.212709344
 C       -0.499340267    20.419108306     2.212243133
 C        0.901977218    18.840805053     3.475241900
 C       -2.027594643    20.407105731     2.395605190
 C       -2.491103772    19.750606682     3.709779003
 N       -3.967837450    19.775813664     3.736591316
 C       -4.668238201    18.589481946     4.001898735
 C       -4.183224963    17.354174910     3.521059413
 C       -4.869658576    16.178802078     3.779241793
 C       -6.106480422    16.187968355     4.443123262
 C       -6.606627700    17.417234558     4.880078316
 C       -5.909335325    18.600359008     4.669167208
 C       -4.499360893    21.020908317     4.311265050
 C       -6.797418528    14.920926116     4.695157245
 C       -7.979651935    14.818167751     5.319320163
Si       -8.865189719    13.249028744     5.647453724
 C       -8.500179496    11.985751265     4.358654241
 C       -8.881028871    12.210153702     3.028875845
 C       -8.610559415    11.262189383     2.044819340
 C       -7.968864320    10.058110414     2.364512916
 C       -7.602884946     9.829985696     3.693667198
 C       -7.870072016    10.778867381     4.679695679
 C       -7.703563619     9.091006902     1.304629849
 C       -7.093524642     7.908788469     1.496176857
 C       -6.819267482     6.929159158     0.451299069
 C       -7.174397293     7.131959103    -0.885298186
 C       -6.891783907     6.166785711    -1.850199137
 C       -6.247543871     4.972909083    -1.500775562
 C       -5.892000206     4.770591767    -0.162683380
 C       -6.173175063     5.736456525     0.800575527
Si       -5.893072639     3.723768850    -2.808686426
 C       -7.394928091     3.479954891    -3.887818131
 C       -4.444990393     4.342456043    -3.882350469
 C       -5.359889181     2.069154154    -2.033154049
 C       -8.317260764    12.623754128     7.364173152
 C      -10.734263790    13.595705441     5.719123887
 C       -4.810669079    12.750241701    -1.896297873
 C       -5.623114664    12.374224787     1.068396936
 C       -0.637503370    -0.896603003    -1.553689307
 C       -0.659083785    -0.907558788     1.537652614
 H        1.190881757     2.681795215    -0.604116336
 H        0.272240577     4.929775167    -0.595254611
 H       -3.565298323     3.400992169     0.609837080
 H       -2.691233493     1.130741325     0.605627370
 H       -3.364515151     5.692835702     0.292489418
 H       -0.591877319     6.785738215    -0.556742394
 H       -4.232949763     7.457468627     0.330866365
 H       -5.222263226     9.661684178     0.366181060
 H       -1.375933093    11.374229326    -0.756390395
 H       -0.435501339     9.125280636    -0.830186082
 H       -2.706251262    13.476287637     1.513823602
 H       -3.345555845    15.192854766    -1.017384742
 H       -2.396745148    17.310997909    -1.091343940
 H       -0.984929725    19.097109601    -0.139686263
 H       -0.343930934    16.676006601     3.381783425
 H       -1.590873639    14.847657621     2.349270260
 H        1.605466972    19.669760751     3.666453326
 H        1.515063051    17.928098398     3.365053603
 H        0.246826266    18.727291935     4.352363978
 H       -3.890937210    21.878662901     3.978639728
 H       -4.522173174    21.017201993     5.413500489
 H       -5.523694882    21.191494157     3.931739485
 H       -3.263538227    17.319228063     2.937616713
 H       -4.453444095    15.232846931     3.425554873
 H       -7.563874251    17.458856626     5.401244999
 H       -6.334239749    19.526792282     5.038348127
 H       -6.256688633    14.048223982     4.300473640
 H       -8.497655991    15.710150277     5.703511649
 H       -9.384676524    13.131966891     2.719565946
 H       -8.907229436    11.460650576     1.016277776
 H       -7.104884541     8.903137049     3.973004402
 H       -7.565791937    10.534318327     5.701453038
 H       -8.043776585     9.391715473     0.309937581
 H       -6.757597225     7.613883534     2.495520122
 H       -7.676030437     8.050495195    -1.184202684
 H       -7.192416565     6.382872737    -2.879744372
 H       -5.396000734     3.854351389     0.170630647
 H       -5.890504545     5.556912747     1.836429804
 H       -0.036631322    21.075447089     2.979995248
 H       -0.262754209    20.886901228     1.225202889
 H       -2.403716971    21.446454558     2.340143829
 H       -2.521415264    19.885666129     1.547927335
 H       -2.110981051    18.705952402     3.767913409
 H       -2.063558800    20.283049557     4.586303864
 H        2.263365781    -1.028007909     0.066437808
 H        2.258936944     0.565311876     0.864030082
 H        2.275070401     0.456609896    -0.917507592
 H       -7.216473289     2.702149629    -4.651019618
 H       -7.676219991     4.407170453    -4.416108742
 H       -8.265840753     3.161974197    -3.286605686
 H       -4.395905506     3.629340976    -4.755353330
 C       -4.672390584     5.761549059    -4.434549202
 C       -3.085937471     4.312945366    -3.164537051
 H       -4.468873454     2.305782254    -1.378133499
 C       -6.447952428     1.434875581    -1.148148781
 C       -4.906680538     1.032590875    -3.077731077
 H       -8.724302761    11.576143660     7.458313707
 C       -6.784923274    12.565457672     7.506586804
 C       -8.883193738    13.455393764     8.529659781
 H      -10.875719509    14.300110537     6.590383640
 C      -11.283426252    14.292726275     4.461769022
 C      -11.564955356    12.328609957     5.988705272
 H       -5.270096078    13.779308939    -1.844275795
 C       -3.691317414    12.777477509    -2.952507536
 C       -5.901882067    11.762579156    -2.349565250
 H       -6.342693493    11.578095130     0.723738191
 C       -5.165610246    12.025961732     2.496036891
 C       -6.366209194    13.720719798     1.088692470
 H       -0.105739813    -1.890845124    -1.576081664
 C       -2.153007976    -1.165228448    -1.525694844
 C       -0.296491565    -0.140811619    -2.851314907
 H       -1.784046272    -0.901940921     1.443796639
 C       -0.201716073    -2.374425711     1.625685467
 C       -0.293398082    -0.187925320     2.848492994
 H       -5.596803073     5.865241115    -5.014961479
 H       -3.851081761     6.034800017    -5.113060961
 H       -4.680066172     6.527481948    -3.644259093
 H       -2.808758509     3.324583449    -2.775313039
 H       -3.031233607     5.022723961    -2.324539677
 H       -2.284780405     4.603776637    -3.858601682
 H       -6.823270522     2.103499798    -0.362024457
 H       -6.047950340     0.548337292    -0.635714473
 H       -7.316964888     1.091148786    -1.724862132
 H       -4.042081680     1.364616871    -3.668450634
 H       -5.701791496     0.748969810    -3.778959104
 H       -4.596610058     0.103819467    -2.576470253
 H       -6.287406709    11.970028771     6.729709514
 H       -6.512251160    12.107799000     8.467586865
 H       -6.321865775    13.563752617     7.496533295
 H       -9.979725894    13.454757380     8.572795742
 H       -8.546973944    14.501134542     8.513213777
 H       -8.540754353    13.038946127     9.488185795
 H      -10.722628947    15.193760408     4.178121179
 H      -12.319410215    14.617144835     4.635840275
 H      -11.316294845    13.628321436     3.587499216
 H      -11.296444141    11.820947624     6.924244464
 H      -11.492736629    11.588872712     5.178550353
 H      -12.630245282    12.586940419     6.073775499
 H       -2.890763025    13.494040511    -2.724458773
 H       -4.100084046    13.072148324    -3.929014423
 H       -3.222252986    11.793885706    -3.100379620
 H       -6.787470088    11.768951115    -1.701004078
 H       -5.540271161    10.725902097    -2.415903894
 H       -6.255285717    12.028332463    -3.355680969
 H       -4.641533011    11.062841406     2.565016431
 H       -6.044825387    11.935610997     3.154355932
 H       -4.521932697    12.792639463     2.945067091
 H       -6.818306493    13.983375746     0.124965243
 H       -5.730751932    14.564042135     1.398505008
 H       -7.190213630    13.684283453     1.817755806
 H       -2.467868453    -1.793819875    -0.683251879
 H       -2.455827767    -1.701339144    -2.436806720
 H       -2.748387465    -0.240482816    -1.499368547
 H        0.779094718     0.030534317    -2.986751560
 H       -0.799820132     0.834601587    -2.921491194
 H       -0.626377700    -0.722210016    -3.724013814
 H       -0.486020489    -2.971994843     0.749926006
 H       -0.668213471    -2.861431929     2.494406045
 H        0.882926006    -2.477382934     1.762834150
 H       -0.639138630     0.855196617     2.881590587
 H        0.786084282    -0.184671030     3.049972480
 H       -0.765631979    -0.695267456     3.701741934

