187   

Si        0.000000000     0.000000000     0.000000000
 C        1.866373203     0.000000000     0.000000000
 C       -0.634003634     1.730252966     0.000000000
 C       -0.178018266     2.612688547     0.987602420
 C       -0.630349195     3.929462712     1.025828601
 C       -1.570253227     4.393936556     0.099536532
 C       -2.028168754     3.510332079    -0.884744664
 C       -1.558412766     2.198636993    -0.940219989
 C       -2.063569639     5.768681899     0.114069172
 C       -1.662290222     6.690478537     1.005431693
 C       -2.115778192     8.074380844     1.071983719
 C       -1.579107706     8.889295513     2.079078382
 C       -1.967325749    10.218959738     2.200222426
 C       -2.929266135    10.759706207     1.335952761
 C       -3.475250945     9.946068995     0.338824890
 C       -3.068548543     8.616781609     0.206646992
Si       -3.409208677    12.524040253     1.536674309
 C       -4.987441402    12.934281464     0.708940413
 C       -5.133185933    13.979653303    -0.117360067
 C       -6.369123544    14.352525238    -0.803980566
 C       -6.355263564    15.479569171    -1.638239533
 C       -7.490339131    15.888673781    -2.318442237
 C       -8.721440669    15.228072735    -2.113332259
 C       -8.741299816    14.109236014    -1.252720586
 C       -7.579449880    13.675963175    -0.628804935
 N       -9.869573837    15.636707486    -2.796940522
 C       -9.933958912    16.987720310    -3.378830469
 C      -11.158094426    15.097903493    -2.344159173
 C       -9.567031161    18.143264994    -2.426601233
 C      -10.675424371    19.196001087    -2.240803045
 N      -11.712189721    18.879117755    -1.231819775
 C      -11.213728671    18.260580827    -0.058894984
 C      -10.152044129    18.894975766     0.619734655
 C       -9.626165798    18.334329781     1.771488294
 C      -10.136951878    17.134004435     2.286660930
 C      -11.207234272    16.525980187     1.627060722
 C      -11.762220749    17.089466889     0.483679315
 C      -12.931995463    18.298109469    -1.813885915
 C       -9.550141921    16.576890815     3.507729202
 C       -9.975960648    15.438038631     4.066609208
Si       -9.343458031    14.630503789     5.576626385
 C       -9.055572712    12.882467111     5.077863576
 C       -8.350695977    12.639691088     3.891343800
 C       -8.105598978    11.334853620     3.468287425
 C       -8.548172677    10.247727559     4.227109155
 C       -9.249680884    10.494299228     5.414437863
 C       -9.504283710    11.797305808     5.835842149
 C       -8.318880937     8.864139330     3.831092862
 C       -7.666132638     8.467401212     2.725273701
 C       -7.459391350     7.067266856     2.367275920
 C       -7.934319648     6.021535826     3.163728074
 C       -7.723502261     4.693195967     2.799277088
 C       -7.019087408     4.380837037     1.632380812
 C       -6.532222555     5.426652512     0.836510988
 C       -6.746979411     6.753364842     1.202655479
Si       -6.746506110     2.624286801     1.160674067
 C       -7.283712700     1.451861229     2.510182795
 C       -7.758297797     2.247975751    -0.409927710
 C       -4.910987367     2.347939297     0.763321859
 C       -7.739985742    15.416279070     6.216600442
 C      -10.658615729    14.752191334     6.944460587
 C       -3.560195548    12.917321464     3.392873698
 C       -1.993830430    13.582535127     0.821218898
 C       -0.647659999    -0.926055815    -1.533650575
 C       -0.625149445    -0.923544377     1.544560797
 H        0.551360239     2.309673304     1.745220007
 H       -0.247173225     4.596132174     1.796935902
 H       -2.754089972     3.849416367    -1.621501802
 H       -1.942156229     1.561660117    -1.742006230
 H       -2.797058946     6.011019141    -0.657576894
 H       -0.928292827     6.424652161     1.774969979
 H       -0.845303985     8.481567523     2.771729411
 H       -1.503928434    10.806050904     2.998629135
 H       -4.230410896    10.318879383    -0.359698781
 H       -3.503889908     8.001097129    -0.577624904
 H       -5.826324529    12.262072944     0.941244213
 H       -4.304368410    14.662939990    -0.354222782
 H       -5.427197847    16.034947527    -1.779168096
 H       -7.421862640    16.726540594    -3.003507328
 H       -9.665722991    13.573662787    -1.061761013
 H       -7.622435082    12.800383111     0.021609040
 H      -11.969329448    15.431488701    -3.011061467
 H      -11.402264305    15.390286910    -1.307677516
 H      -11.137648523    13.993080036    -2.405281957
 H      -13.717831177    18.247508351    -1.038364137
 H      -12.794824191    17.296527733    -2.247988877
 H      -13.309778889    18.974227013    -2.600622057
 H       -9.752051616    19.830916647     0.237949226
 H       -8.802926031    18.834923957     2.281987831
 H      -11.627862787    15.594764266     2.011442258
 H      -12.612099674    16.603265281     0.015645372
 H       -8.733906246    17.180637623     3.920736171
 H      -10.805242417    14.864517197     3.613505453
 H       -7.983776088    13.454993758     3.255618336
 H       -7.561906925    11.166643710     2.539515411
 H       -9.602518395     9.660189514     6.017371819
 H      -10.055119609    11.929097598     6.770340452
 H       -8.732360893     8.123484165     4.523102512
 H       -7.241795943     9.194110809     2.027161224
 H       -8.480338049     6.235819689     4.080680747
 H       -8.122632536     3.921129822     3.462758016
 H       -5.964118490     5.239576373    -0.078891516
 H       -6.351298382     7.553116649     0.578856793
 H       -9.241629000    16.992300044    -4.256196290
 H      -10.949887955    17.144973935    -3.802974425
 H       -9.259651447    17.733042871    -1.440191957
 H       -8.659161432    18.654911681    -2.801636400
 H      -10.208977677    20.157399879    -1.912230428
 H      -11.165755578    19.416914822    -3.212448063
 H        2.264527954    -0.976351711    -0.328259110
 H        2.279324249     0.210346291     1.001586511
 H        2.260647663     0.768662507    -0.689758141
 H       -7.072613684     0.404027484     2.232154419
 H       -8.365335763     1.530786586     2.714164759
 H       -6.745019522     1.658929321     3.452687834
 H       -7.624319635     1.144159826    -0.600051330
 C       -9.262162561     2.519284237    -0.222462540
 C       -7.272369980     3.008376479    -1.657225849
 H       -4.622933526     3.145236683     0.016271074
 C       -4.000279313     2.514107956     1.991953239
 C       -4.650931919     0.975575324     0.116321383
 H       -7.994330905    16.491919145     6.446303429
 C       -7.223223783    14.759458027     7.509748544
 C       -6.609580024    15.404923039     5.174178029
 H      -10.282042859    14.111871698     7.793949245
 C      -10.845720637    16.184435274     7.477131373
 C      -12.029726366    14.206906526     6.504741245
 H       -2.582324287    12.595377869     3.856064398
 C       -3.737076954    14.420857247     3.666643817
 C       -4.687386176    12.132022479     4.082299657
 H       -2.343250517    14.653169348     0.885199123
 C       -0.679002775    13.466905583     1.612830641
 C       -1.707281009    13.255856361    -0.655785037
 H       -1.764907438    -0.764860670    -1.544021324
 C       -0.071780043    -0.372308743    -2.850058020
 C       -0.395800393    -2.444496900    -1.488784443
 H       -0.151444428    -1.946745553     1.486224980
 C       -0.185879339    -0.273123853     2.869032513
 C       -2.152414768    -1.105237314     1.580176697
 H       -9.708928478     1.948045985     0.601372199
 H       -9.813163290     2.232863045    -1.129340028
 H       -9.485623677     3.581751828    -0.048772326
 H       -6.217304116     2.823997083    -1.897112868
 H       -7.416147647     4.094792700    -1.574799950
 H       -7.848316814     2.690370641    -2.537914796
 H       -4.109320776     3.490785697     2.484400870
 H       -2.943357858     2.451274835     1.682845098
 H       -4.150077326     1.737190299     2.750837577
 H       -5.205968153     0.819476222    -0.817276424
 H       -4.875714730     0.134631496     0.784842049
 H       -3.585528600     0.886653575    -0.144689527
 H       -7.940109674    14.804133979     8.339450948
 H       -6.318056393    15.276977698     7.858826600
 H       -6.939516233    13.706406335     7.371085531
 H       -6.882916286    15.871711628     4.217760159
 H       -6.250749384    14.387078640     4.953419606
 H       -5.742388695    15.963410718     5.553394557
 H       -9.932112149    16.610516506     7.911115836
 H      -11.597926564    16.192328661     8.279003612
 H      -11.208519575    16.883034454     6.709840568
 H      -11.992953208    13.178302095     6.121165295
 H      -12.506976517    14.829647933     5.735028274
 H      -12.720572482    14.191315928     7.359649498
 H       -2.898663513    15.030105571     3.305670458
 H       -3.799395042    14.600087013     4.749761827
 H       -4.658132274    14.831085627     3.227081099
 H       -4.599005768    11.042687890     3.961362114
 H       -5.690202585    12.421344250     3.735834870
 H       -4.673161823    12.317834700     5.165697318
 H       -0.775621268    13.760333157     2.665734032
 H        0.080454992    14.132590246     1.177592344
 H       -0.249942734    12.455374649     1.582692666
 H       -2.587074290    13.349178337    -1.307000184
 H       -1.303321075    12.242748041    -0.795890796
 H       -0.951791108    13.946362259    -1.055922022
 H       -0.228175883     0.706962742    -2.981804407
 H       -0.555193293    -0.860744908    -3.708022687
 H        1.005463693    -0.560826372    -2.954869139
 H       -0.856238849    -2.936356293    -0.621980090
 H        0.670974216    -2.703721503    -1.491876119
 H       -0.830247680    -2.923235655    -2.378379138
 H        0.901082411    -0.157274533     2.961947599
 H       -0.499748304    -0.900944946     3.715842678
 H       -0.646551828     0.711531313     3.032937446
 H       -2.561655524    -1.584586524     0.682369192
 H       -2.686785897    -0.153395090     1.725161387
 H       -2.435391265    -1.746965270     2.426868463

