187   

Si        0.000000000     0.000000000     0.000000000
 C        1.865443195     0.000000000     0.000000000
 C       -0.672624866     1.713742942     0.000000000
 C        0.155146976     2.813704724    -0.245780358
 C       -0.365206087     4.107672410    -0.243343956
 C       -1.723433609     4.331230962    -0.003724040
 C       -2.552443398     3.227836055     0.239086925
 C       -2.035247769     1.935360862     0.241867946
 C       -2.309927953     5.667318946     0.008071094
 C       -1.624285224     6.803196764    -0.205244326
 C       -2.207517130     8.140210726    -0.194132952
 C       -3.565317761     8.367661885     0.045118566
 C       -4.080743101     9.663487838     0.046488194
 C       -3.245330581    10.759484444    -0.187797016
 C       -1.883147298    10.535635212    -0.429834375
 C       -1.373371897     9.240283337    -0.436077299
Si       -3.885539924    12.483058862    -0.194374892
 C       -2.663298397    13.520796023     0.683309857
 C       -2.136420916    14.672226395     0.248077823
 C       -1.157496030    15.456484197     1.005223250
 C       -0.670816913    16.650316676     0.452691273
 C        0.255848748    17.424759791     1.132380227
 C        0.713445057    17.026263468     2.403339674
 C        0.252523349    15.819800174     2.946816362
 C       -0.644843170    15.032252720     2.234028744
 N        1.664441572    17.863366924     3.050180016
 C        1.170983230    19.224951630     3.349948245
 C        2.373643999    17.254292187     4.189319778
 C        0.030981431    19.294372111     4.384582472
 C       -1.352127811    19.431448880     3.716194990
 N       -2.490363726    18.992957111     4.556746555
 C       -2.516609583    17.565308285     4.691975590
 C       -3.105720137    16.857204329     3.631332585
 C       -3.172891358    15.474087809     3.680628468
 C       -2.691632228    14.768155636     4.794650950
 C       -2.126882338    15.483577084     5.852465223
 C       -2.039695287    16.872323679     5.809206189
 C       -2.584793838    19.729364533     5.829610391
 C       -2.788458893    13.305994481     4.792237558
 C       -2.365907050    12.523338747     5.792870448
Si       -2.465018231    10.696862348     5.835985493
 C       -0.818692462    10.014439987     6.291154007
 C        0.339825475    10.764720272     6.051983283
 C        1.590107198    10.255874940     6.393376070
 C        1.714742715     8.982162732     6.963788196
 C        0.556783761     8.232999707     7.191282408
 C       -0.697816342     8.741799104     6.857738267
 C        3.046478204     8.492379652     7.304522622
 C        3.301779264     7.296188892     7.861187152
 C        4.632530806     6.804748288     8.202569966
 C        5.792753093     7.549928804     7.977058989
 C        7.045387623     7.040563370     8.319251046
 C        7.163858694     5.774343200     8.900666117
 C        6.001534006     5.024966346     9.128118743
 C        4.753306412     5.533824019     8.780834726
Si        8.809011024     5.087150034     9.358296539
 C       10.137844704     6.395488779     9.308413634
 C        8.679859952     4.346612780    11.107211507
 C        9.275178536     3.696364536     8.144995901
 C       -3.804035883    10.161133142     7.067598491
 C       -2.879529030    10.018364440     4.106344383
 C       -4.129460082    13.053019562    -1.990958856
 C       -5.558550210    12.617251610     0.701632207
 C       -0.610525280    -0.925512040    -1.546976892
 C       -0.659798341    -0.896707963     1.543897410
 H        1.225406983     2.702076531    -0.441050478
 H        0.302086733     4.947146088    -0.431376138
 H       -3.613194928     3.379765987     0.428926636
 H       -2.729464829     1.114092147     0.440727756
 H       -3.384870394     5.693619254     0.207879879
 H       -0.548523222     6.775248994    -0.403813499
 H       -4.234691981     7.530393904     0.232385406
 H       -5.151461370     9.778682252     0.235110765
 H       -1.183790261    11.358347147    -0.615345622
 H       -0.313089299     9.082958547    -0.626936299
 H       -2.367242842    13.095531565     1.659474962
 H       -2.405007975    15.125055912    -0.714212928
 H       -1.025890067    16.978270472    -0.523814324
 H        0.643078158    18.336031711     0.683039559
 H        0.582615138    15.486936403     3.927118117
 H       -0.967293689    14.081450603     2.666682671
 H        3.201051195    17.920373606     4.488975748
 H        2.826181953    16.299949867     3.865433562
 H        1.743820071    17.063955904     5.072410091
 H       -2.748503372    20.796823215     5.601487112
 H       -1.704060115    19.644624300     6.482522009
 H       -3.469126066    19.371733593     6.385828321
 H       -3.494172221    17.403950188     2.773116984
 H       -3.618323617    14.933316355     2.842769659
 H       -1.747175811    14.956765487     6.728112832
 H       -1.597205277    17.408890878     6.642799465
 H       -3.240852628    12.904097412     3.874792501
 H       -1.921338322    12.956558790     6.704468769
 H        0.302648280    11.761584878     5.599656271
 H        2.479874068    10.854337767     6.208003492
 H        0.626511539     7.239879552     7.631176224
 H       -1.567588042     8.110497263     7.058742958
 H        3.861724604     9.183304198     7.070929530
 H        2.485940598     6.605303938     8.093387234
 H        5.727529430     8.539507154     7.528580747
 H        7.916710560     7.669774873     8.117797260
 H        6.032814574     4.029428650     9.579866487
 H        3.862220368     4.936175028     8.963347117
 H        2.043359796    19.818353935     3.707572906
 H        0.858841214    19.697639358     2.392070196
 H        0.045133213    18.385981035     5.019018442
 H        0.200188228    20.140376844     5.073270020
 H       -1.539550668    20.488151483     3.427278870
 H       -1.380620801    18.834599409     2.773536660
 H        2.263381653    -1.029262488     0.051052873
 H        2.261847836     0.552109187     0.871684949
 H        2.274640865     0.469676248    -0.911621756
 H       11.112456719     5.984863503     9.627466827
 H        9.893698014     7.234184653     9.985436537
 H       10.267480049     6.808444803     8.292701799
 H        7.893892138     3.538794913    11.043254892
 C        9.985624431     3.695516285    11.596793697
 C        8.211024008     5.377202727    12.150285789
 H       10.311617602     3.365799786     8.444375168
 C        8.344892192     2.472516467     8.220917674
 C        9.331659553     4.182195903     6.684980323
 H       -3.826835751     9.033019436     7.032449611
 C       -3.483300611    10.583969426     8.512327222
 C       -5.205357932    10.675440447     6.691145864
 H       -3.787734512    10.587095931     3.752708136
 C       -1.732126864    10.267939670     3.112328101
 C       -3.224712571     8.519609218     4.090735193
 H       -4.417713944    14.142710671    -1.935673269
 C       -2.843589300    12.940615392    -2.830001497
 C       -5.258080065    12.297954783    -2.715422168
 H       -6.266711234    11.955600711     0.123494644
 C       -5.521583691    12.116721904     2.155906469
 C       -6.126918068    14.048194675     0.688512348
 H       -0.109525382    -1.936111184    -1.513833830
 C       -2.132941183    -1.150423292    -1.573527563
 C       -0.192820442    -0.228194195    -2.854713878
 H       -1.784508838    -0.891115701     1.447086612
 C       -0.202890594    -2.362821306     1.645329689
 C       -0.296465231    -0.166256852     2.849455603
 H       10.347133561     2.896439122    10.936785871
 H        9.827405271     3.232187032    12.581566430
 H       10.802325153     4.418097373    11.725803275
 H        7.249975476     5.846302294    11.894808400
 H        8.938693734     6.182804498    12.315246958
 H        8.064444572     4.888359165    13.123949287
 H        8.307537162     2.013791603     9.217004052
 H        8.699894397     1.688528934     7.536153735
 H        7.314174903     2.700952066     7.914921628
 H       10.040704829     5.004720860     6.525637305
 H        8.352583137     4.508801395     6.305609746
 H        9.658334520     3.363576311     6.027820516
 H       -2.511584761    10.214607072     8.869075370
 H       -4.237189602    10.176208696     9.200686177
 H       -3.496571740    11.673526760     8.652585940
 H       -5.540127702    10.338883538     5.701292682
 H       -5.279422321    11.772065344     6.714016136
 H       -5.948798652    10.302919993     7.409998430
 H       -1.464939819    11.326658009     3.000244641
 H       -2.022223942     9.913244973     2.109840362
 H       -0.814736414     9.718965219     3.368036579
 H       -4.099080542     8.264911450     4.700948022
 H       -2.388987201     7.882995087     4.413451999
 H       -3.461204164     8.203977517     3.062220172
 H       -1.991296477    13.487696512    -2.404543458
 H       -3.009552966    13.359695086    -3.832531059
 H       -2.525123571    11.899124317    -2.982567399
 H       -6.239341038    12.416888182    -2.238705526
 H       -5.060664592    11.220806570    -2.811693028
 H       -5.368482870    12.679957136    -3.740902636
 H       -5.122419306    11.097978050     2.259895359
 H       -6.539108369    12.090818265     2.571482996
 H       -4.939789122    12.775875061     2.816868344
 H       -6.288435041    14.444532667    -0.321824109
 H       -5.495826544    14.767199272     1.231070038
 H       -7.108650114    14.067806283     1.183268747
 H       -2.505600738    -1.715555684    -0.709945853
 H       -2.410205806    -1.733819499    -2.463707347
 H       -2.701778077    -0.212025041    -1.634803378
 H        0.892852884    -0.101341219    -2.954585237
 H       -0.655918394     0.761500723    -2.977491220
 H       -0.512685608    -0.826665301    -3.719712694
 H       -0.488454837    -2.968619392     0.775712845
 H       -0.668754191    -2.841334990     2.519080800
 H        0.881856855    -2.464669307     1.782315081
 H       -0.642366760     0.877164096     2.873472444
 H        0.782632405    -0.161318963     3.052896493
 H       -0.770584385    -0.666406875     3.705849831

