187   

Si        0.000000000     0.000000000     0.000000000
 C        1.865164084     0.000000000     0.000000000
 C       -0.682334791     1.709423983     0.000000000
 C        0.110118016     2.803520137    -0.361442470
 C       -0.418291903     4.094443995    -0.357583340
 C       -1.749559334     4.320441417     0.001553680
 C       -2.543671571     3.222298976     0.358708579
 C       -2.019196620     1.932922845     0.356366861
 C       -2.346524781     5.651517337     0.020614919
 C       -1.701559523     6.786902040    -0.297108492
 C       -2.305000229     8.115455621    -0.275882276
 C       -1.520216867     9.219971890    -0.630500990
 C       -2.055264782    10.506506947    -0.624214294
 C       -3.385818924    10.719147483    -0.248121440
 C       -4.171927730     9.616263163     0.109147974
 C       -3.637340976     8.329889564     0.090079343
Si       -4.139001798    12.396946110    -0.223190424
 C       -5.302921567    12.570570831     1.177071631
 C       -5.181172192    11.920326244     2.341840382
 C       -6.112701173    12.059869122     3.461310595
 C       -5.877608362    11.324511091     4.631211785
 C       -6.727727449    11.419055825     5.720896111
 C       -7.881357585    12.230663239     5.659912730
 C       -8.105830822    12.983192711     4.492222760
 C       -7.210831465    12.923329570     3.431948751
 N       -8.738477330    12.318644645     6.775114118
 C       -8.860423253    11.106370356     7.612558292
 C      -10.026249121    13.000133927     6.554487018
 C       -9.149523606     9.795404487     6.856779536
 C      -10.644912248     9.564386085     6.564729188
 N      -10.942646954     9.062651496     5.202407807
 C      -10.780195890    10.084827860     4.211005866
 C      -11.847250034    10.990075360     4.081474867
 C      -11.776507382    12.011537118     3.147380145
 C      -10.639511413    12.172071462     2.341083516
 C       -9.592127165    11.255489917     2.464797965
 C       -9.669043578    10.200281532     3.369432762
 C      -10.258098435     7.795266320     4.892061752
 C      -10.624207566    13.270809671     1.371930589
 C       -9.606964528    13.537356046     0.543136269
Si       -9.579133763    14.907225615    -0.670296415
 C       -9.084529823    14.231154351    -2.305572064
 C       -9.462386458    12.930922716    -2.658728252
 C       -9.096532948    12.400607726    -3.894991103
 C       -8.349958711    13.156392408    -4.803870008
 C       -7.978455057    14.459845618    -4.449214251
 C       -8.344460740    14.994105064    -3.216367658
 C       -7.945424373    12.642014887    -6.107612438
 C       -8.236317038    11.413242086    -6.567221067
 C       -7.832633490    10.896980751    -7.870813284
 C       -7.088981178    11.650220604    -8.782832285
 C       -6.724519689    11.116530905   -10.018834358
 C       -7.100409213     9.816460239   -10.370896146
 C       -7.845673490     9.058547612    -9.457416214
 C       -8.203988569     9.592371021    -8.222772073
Si       -6.627278723     9.097522070   -11.998392966
 C       -6.016695840    10.408263277   -13.176742795
 C       -5.247148598     7.812035796   -11.741215312
 C       -8.147806654     8.214191287   -12.727016023
 C      -11.306397871    15.687116445    -0.853162590
 C       -8.395617818    16.268787679    -0.070796281
 C       -2.808331070    13.748299333    -0.129386872
 C       -5.155314739    12.623497719    -1.817227455
 C       -0.617954267    -0.918522159    -1.548521281
 C       -0.651751977    -0.911134309     1.539621112
 H        1.158317640     2.689297082    -0.651067252
 H        0.220216022     4.929549674    -0.639919229
 H       -3.583487846     3.376191325     0.640715472
 H       -2.687176709     1.116072546     0.643496303
 H       -3.398230090     5.675621168     0.321189947
 H       -0.650581958     6.765207996    -0.599103236
 H       -0.480980987     9.074898736    -0.918490390
 H       -1.397405998    11.328551397    -0.918267539
 H       -5.220019717     9.724038853     0.411324788
 H       -4.269410246     7.488421822     0.367060507
 H       -6.133880120    13.270925965     0.998208942
 H       -4.362190402    11.216486863     2.546193253
 H       -5.007619977    10.669300566     4.691333257
 H       -6.494484217    10.867673357     6.626765490
 H       -8.976986429    13.625838474     4.401956733
 H       -7.394803551    13.546833117     2.554226566
 H      -10.622448184    12.993572288     7.480737170
 H      -10.629027515    12.550829264     5.745213495
 H       -9.833624305    14.060003723     6.306038833
 H      -10.608828944     7.027592210     5.603382681
 H       -9.159429779     7.836088702     4.939879796
 H      -10.552519856     7.466061683     3.879963449
 H      -12.729543408    10.867127240     4.706954427
 H      -12.616026761    12.698209766     3.042897298
 H       -8.701092868    11.350179351     1.839198523
 H       -8.846160257     9.493205434     3.437301556
 H      -11.544968834    13.869207642     1.393296651
 H       -8.691398588    12.921211737     0.542941187
 H      -10.043902389    12.291641791    -1.985562699
 H       -9.401012726    11.386583342    -4.148498625
 H       -7.398064587    15.064289017    -5.143413223
 H       -8.028434190    16.016973158    -2.994698478
 H       -7.367689583    13.342401938    -6.717467716
 H       -8.814136053    10.712399712    -5.957018000
 H       -6.785983602    12.665687634    -8.534203635
 H       -6.143015395    11.753804672   -10.690738388
 H       -8.166957300     8.036630305    -9.678054746
 H       -8.780840633     8.987348168    -7.525639049
 H       -7.899183833    11.006235842     8.173005024
 H       -9.636946530    11.283911929     8.388141212
 H       -8.579870081     9.787442422     5.903387069
 H       -8.747507636     8.945052627     7.437083163
 H      -11.066816415     8.824867082     7.281229021
 H      -11.223678022    10.502511590     6.713878840
 H        2.262660345    -1.029368237     0.051703957
 H        2.260617448     0.552946080     0.871516209
 H        2.275623599     0.469510644    -0.911024091
 H       -5.775783802     9.974914096   -14.163905966
 H       -5.105294337    10.905087816   -12.800602028
 H       -6.784947763    11.186808622   -13.335062627
 H       -4.967082082     7.454706274   -12.774138448
 C       -3.991280725     8.418186491   -11.088356001
 C       -5.689116709     6.589335951   -10.917498336
 H       -8.422238329     7.408428268   -11.985422581
 C       -9.360242380     9.151411139   -12.873466554
 C       -7.873212741     7.534268458   -14.080132253
 H      -11.622468660    15.996529873     0.184494398
 C      -11.312646103    16.940803478    -1.745776972
 C      -12.347883977    14.692009559    -1.396278051
 H       -8.505119622    17.112278330    -0.813008435
 C       -8.770388546    16.807785407     1.322168605
 C       -6.918374011    15.844966631    -0.052930371
 H       -2.134877098    13.583912151    -1.019890726
 C       -3.377593489    15.175437073    -0.225951610
 C       -1.952836134    13.638953966     1.145776638
 H       -5.656651227    13.631430010    -1.728631856
 C       -4.304505520    12.627479399    -3.097688436
 C       -6.256147978    11.557344562    -1.952805318
 H       -0.130906301    -1.935659976    -1.516054816
 C       -2.143665941    -1.120641167    -1.573289101
 C       -0.190874503    -0.225948511    -2.855661687
 H       -1.776287319    -0.919852229     1.441700986
 C       -0.177124543    -2.372113328     1.635233958
 C       -0.298797594    -0.182359314     2.848931800
 H       -3.559383313     9.249154050   -11.660595333
 H       -3.202338872     7.656239801   -11.010552902
 H       -4.172972382     8.777448500   -10.065016590
 H       -6.534467129     6.047416330   -11.359731259
 H       -5.956255780     6.846256648    -9.882570874
 H       -4.863998693     5.865267478   -10.848628961
 H       -9.650798551     9.635981215   -11.930286880
 H      -10.238706877     8.582019979   -13.208987510
 H       -9.203013078     9.943622079   -13.617374134
 H       -7.063026507     6.794799558   -14.038802772
 H       -7.633221972     8.249295738   -14.878154460
 H       -8.768442114     6.990204378   -14.414861864
 H      -10.682143267    17.752906604    -1.362237678
 H      -12.331324182    17.350611637    -1.810963978
 H      -11.001847044    16.733266588    -2.779611655
 H      -12.436395912    13.775028332    -0.798037803
 H      -12.144985884    14.388977956    -2.433930526
 H      -13.345073237    15.154297818    -1.401431537
 H       -9.783652479    17.225487920     1.371772210
 H       -8.090582473    17.624436014     1.604917478
 H       -8.684086369    16.048652895     2.113475915
 H       -6.568274199    15.431507649    -1.008890660
 H       -6.700046939    15.108411306     0.734115058
 H       -6.278429137    16.714067497     0.157249578
 H       -3.936462484    15.358155035    -1.153068273
 H       -2.558171954    15.908100252    -0.212461826
 H       -4.032041289    15.431483426     0.619060617
 H       -1.463201058    12.662405943     1.262409300
 H       -2.529257453    13.829265674     2.062954779
 H       -1.147557559    14.386345559     1.126816087
 H       -3.549374255    13.422415560    -3.118538458
 H       -4.950631645    12.792048238    -3.973659231
 H       -3.792236007    11.671457658    -3.274912031
 H       -6.955970285    11.540760065    -1.106393701
 H       -5.858802617    10.542079399    -2.085480279
 H       -6.866037480    11.765995225    -2.846598688
 H       -2.521398926    -1.693130345    -0.716778968
 H       -2.432824270    -1.686336450    -2.470982913
 H       -2.699161875    -0.173056847    -1.617517658
 H        0.896373245    -0.114185381    -2.955533302
 H       -0.640783486     0.769986910    -2.977629003
 H       -0.519113067    -0.819348774    -3.721031439
 H       -0.453793625    -2.977288796     0.762306447
 H       -0.638808924    -2.860252921     2.505857874
 H        0.908478698    -2.461516885     1.773820810
 H       -0.656820673     0.856814754     2.877110370
 H        0.779931386    -0.165654424     3.053579561
 H       -0.767737436    -0.692031340     3.702561220

