187   

Si        0.000000000     0.000000000     0.000000000
 C        1.865221482     0.000000000     0.000000000
 C       -0.640706926     1.727171993     0.000000000
 C       -0.129320524     2.649973497     0.921065809
 C       -0.595475699     3.963128010     0.943689290
 C       -1.572037936     4.394409458     0.039835444
 C       -2.080807832     3.470083287    -0.880958005
 C       -1.626352052     2.153023085    -0.897453974
 C       -2.083360338     5.761972360     0.034786235
 C       -1.674055075     6.720721269     0.880904274
 C       -2.158430551     8.096228126     0.908933502
 C       -1.605856170     8.951974394     1.871361290
 C       -2.015082435    10.277365152     1.962002927
 C       -3.053641152    10.762963129     1.154300595
 C       -3.632747496     9.899643398     0.219160680
 C       -3.184477645     8.582269127     0.094274393
Si       -3.536682469    12.530122340     1.334378617
 C       -5.318673256    12.926202705     1.449040938
 C       -5.924175986    13.859943913     0.702116838
 C       -7.344736301    14.202822303     0.766840867
 C       -7.830308882    15.206976232    -0.083257500
 C       -9.164043224    15.580595689    -0.073329012
 C      -10.082424637    14.923828192     0.775383579
 C       -9.596108573    13.906537505     1.626150610
 C       -8.250020407    13.567960360     1.621543811
 N      -11.426940364    15.284480541     0.800117515
 C      -11.969392691    16.220653623    -0.188911416
 C      -12.389715984    14.361155172     1.410097676
 C      -11.976412822    15.714267282    -1.641752150
 C      -13.094774252    14.687554743    -1.893294046
 N      -12.875468454    13.843722390    -3.078018681
 C      -11.806759894    12.923832991    -3.039556171
 C      -11.093023670    12.658257922    -1.855267805
 C      -10.047297552    11.748170517    -1.850785765
 C       -9.708581112    11.033501719    -3.006488859
 C      -10.436438202    11.275396907    -4.175556286
 C      -11.471413111    12.199440347    -4.200328017
 C      -13.045083988    14.574495559    -4.347388116
 C       -8.595905726    10.085659268    -2.945195798
 C       -8.183379330     9.348990126    -3.984185678
Si       -6.807635587     8.146457151    -3.992712772
 C       -6.493156455     7.309601156    -2.383905485
 C       -7.201005412     7.609528780    -1.215161332
 C       -6.923516462     6.945765805    -0.021393277
 C       -5.969287144     5.923845493     0.022085493
 C       -5.272477789     5.616142517    -1.150829669
 C       -5.517759942     6.305726857    -2.334711396
 C       -5.699104551     5.245945819     1.286278495
 C       -4.771837942     4.284156642     1.425125836
 C       -4.453303687     3.570034359     2.653693775
 C       -5.096333993     3.810662526     3.869415992
 C       -4.744953769     3.091665129     5.013062676
 C       -3.738237391     2.123109203     4.961062433
 C       -3.087163943     1.887564782     3.742906692
 C       -3.437498010     2.605755668     2.605913597
Si       -3.243794355     1.153021785     6.443324520
 C       -4.544684372     1.211374919     7.776837399
 C       -2.925385138    -0.643988495     5.896681972
 C       -1.610260943     1.864866157     7.115167873
 C       -7.257678716     6.865677668    -5.330281095
 C       -5.200020559     9.033506575    -4.497757430
 C       -2.758946818    13.271932114     2.913288951
 C       -2.767161845    13.426179731    -0.166603095
 C       -0.657740036    -0.940208893    -1.519047971
 C       -0.624876670    -0.909025694     1.553615320
 H        0.643672511     2.378546639     1.646175465
 H       -0.187946917     4.656276009     1.678025945
 H       -2.830223660     3.780877393    -1.606848504
 H       -2.071155585     1.478239165    -1.633932774
 H       -2.827892299     5.984478660    -0.734499859
 H       -0.921368852     6.494168794     1.644480861
 H       -0.829405246     8.585821157     2.540383485
 H       -1.508335729    10.899184559     2.705908210
 H       -4.460170808    10.219188350    -0.422705542
 H       -3.657486493     7.925421264    -0.637232038
 H       -5.873188404    12.342312206     2.198631913
 H       -5.385007434    14.453827723    -0.050438393
 H       -7.145571900    15.712565351    -0.766031938
 H       -9.489624726    16.381311665    -0.728268314
 H      -10.265578224    13.384266818     2.300434558
 H       -7.899008860    12.783436372     2.294020735
 H      -13.425480676    14.697148742     1.242208962
 H      -12.229914274    14.341274003     2.505701635
 H      -12.295333450    13.329058140     1.026587872
 H      -13.789836869    15.378208811    -4.234301800
 H      -13.436986759    13.879688271    -5.112364940
 H      -12.107838936    15.018938389    -4.719769375
 H      -11.328516524    13.180251825    -0.932291157
 H       -9.485990779    11.590309248    -0.927354255
 H      -10.194900510    10.729833925    -5.088660721
 H      -12.022688895    12.354478997    -5.122274569
 H       -8.109761403    10.057953155    -1.959176143
 H       -8.686176332     9.433223487    -4.962229957
 H       -7.992657640     8.364608831    -1.191567138
 H       -7.467042922     7.218087306     0.881038493
 H       -4.542906442     4.807313728    -1.151702470
 H       -4.919401589     6.029453394    -3.208066768
 H       -6.301706471     5.577183624     2.133739085
 H       -4.171788812     3.969146191     0.561942851
 H       -5.880448720     4.562252376     3.931453310
 H       -5.284573310     3.316393166     5.936054265
 H       -2.289502407     1.143763417     3.643387783
 H       -2.909368481     2.420400615     1.667955293
 H      -13.000612074    16.506763139     0.120207718
 H      -11.369705412    17.162522351    -0.127983771
 H      -12.085874954    16.569139209    -2.333035626
 H      -10.991692133    15.264089426    -1.890742847
 H      -13.221297136    14.012080680    -1.016506925
 H      -14.073917952    15.203412920    -2.013531113
 H        2.264778846    -1.029250393     0.002263035
 H        2.276751431     0.522516206     0.880917633
 H        2.258234620     0.507740481    -0.899874939
 H       -4.252935743     0.597312443     8.647188676
 H       -5.509630191     0.822133004     7.403871585
 H       -4.715454669     2.240699850     8.137845757
 H       -2.065481162    -0.595016531     5.165684107
 C       -2.508111445    -1.573578590     7.049523506
 C       -4.128116717    -1.262903082     5.162121060
 H       -1.344855354     1.235342315     8.012175647
 C       -0.447434910     1.780877636     6.109260806
 C       -1.751552660     3.325805761     7.580574399
 H       -7.507259629     7.472041872    -6.249472592
 C       -6.128550972     5.892419552    -5.708365806
 C       -8.505394401     6.051493598    -4.942233649
 H       -4.427115450     8.221334973    -4.626147969
 C       -5.323650577     9.792486981    -5.830262239
 C       -4.695972635    10.000890254    -3.412739940
 H       -1.654153630    13.053994731     2.855784198
 C       -2.931605250    14.798852960     3.004948317
 C       -3.312057545    12.632745074     4.199667833
 H       -3.047886225    14.512803911    -0.056831558
 C       -1.231382137    13.332531896    -0.197780505
 C       -3.320698677    12.918025718    -1.509841360
 H       -1.779310299    -0.811635386    -1.501793571
 C       -0.131025677    -0.367330760    -2.847868726
 C       -0.361413621    -2.450861695    -1.484149911
 H       -0.240455802    -1.965871327     1.454933263
 C       -0.064111273    -0.328725686     2.864271936
 C       -2.159598292    -0.967978614     1.641651154
 H       -1.612354489    -1.230534050     7.582994398
 H       -2.269254497    -2.573250345     6.658755984
 H       -3.304263859    -1.717247461     7.792018574
 H       -4.443673953    -0.681887623     4.283030482
 H       -5.007735700    -1.387114544     5.807488073
 H       -3.871080646    -2.265931853     4.793787676
 H       -0.220202081     0.755937829     5.790012995
 H        0.473174860     2.170363986     6.567028971
 H       -0.621621484     2.386243275     5.207346491
 H       -2.511427905     3.464105033     8.360217493
 H       -1.990592581     4.014002370     6.756491625
 H       -0.803447924     3.678260007     8.010832550
 H       -5.197880965     6.393046001    -6.003115856
 H       -6.434507257     5.283531402    -6.571780694
 H       -5.892895572     5.180725108    -4.905300118
 H       -9.384447315     6.674800422    -4.725789886
 H       -8.338923813     5.404765422    -4.068751706
 H       -8.794743344     5.385804013    -5.767341046
 H       -5.616004179     9.153468178    -6.672693601
 H       -4.353986151    10.233258885    -6.103246581
 H       -6.036841408    10.627469122    -5.780254761
 H       -4.477212015     9.498137030    -2.459157966
 H       -5.397646670    10.821764222    -3.206224932
 H       -3.755680906    10.471130153    -3.734124987
 H       -2.465423602    15.339233847     2.171150051
 H       -2.455492192    15.177029965     3.920687888
 H       -3.985356325    15.108868106     3.055318854
 H       -3.226511488    11.537677710     4.221490684
 H       -4.366882124    12.884470500     4.378240225
 H       -2.755509357    13.001930141     5.072766092
 H       -0.749823293    13.774142520     0.683790117
 H       -0.838383517    13.877883966    -1.067654462
 H       -0.867225885    12.299387925    -0.294021469
 H       -4.416646169    12.960224306    -1.580246776
 H       -3.014963176    11.884369580    -1.729456695
 H       -2.933943454    13.534397494    -2.333285817
 H       -0.309176874     0.710128798    -2.966340060
 H       -0.632969930    -0.856996240    -3.694613743
 H        0.945186603    -0.538339388    -2.987016217
 H       -0.803848571    -2.959807809    -0.617996693
 H        0.712336350    -2.679321275    -1.494721352
 H       -0.787086614    -2.937161708    -2.374100035
 H        1.032366199    -0.343793334     2.910624672
 H       -0.412682525    -0.928264541     3.718411937
 H       -0.391297211     0.704344811     3.052150167
 H       -2.620217189    -1.511940107     0.807194804
 H       -2.631084074     0.025056323     1.686149631
 H       -2.467387334    -1.493819318     2.558016341

