187   

Si        0.000000000     0.000000000     0.000000000
 C        1.865172824     0.000000000     0.000000000
 C       -0.677290925     1.711660343     0.000000000
 C        0.088949184     2.784487007    -0.467426555
 C       -0.428202882     4.079712108    -0.465604587
 C       -1.722723523     4.331689746    -0.003546117
 C       -2.491278665     3.254849580     0.458290084
 C       -1.977951409     1.960742568     0.457647949
 C       -2.305652970     5.669041470     0.017267621
 C       -1.679655732     6.784302520    -0.395449309
 C       -2.265275909     8.120646089    -0.373440778
 C       -1.500675115     9.199991563    -0.834262758
 C       -2.018770235    10.493142473    -0.831758747
 C       -3.310212423    10.739155557    -0.352071565
 C       -4.075020652     9.661937639     0.111811539
 C       -3.558870674     8.367690047     0.095933749
Si       -4.027441503    12.432073200    -0.333138495
 C       -5.063982928    12.713941006     1.147740876
 C       -4.839638104    12.109344395     2.321897417
 C       -5.645765357    12.309407184     3.526240733
 C       -5.296466667    11.609593535     4.690261367
 C       -6.023111516    11.759417811     5.859757819
 C       -7.070111252    12.702026108     5.932045822
 C       -7.408618028    13.418927056     4.770365208
 C       -6.722327783    13.197842884     3.582111266
 N       -7.793887148    12.833045180     7.137345633
 C       -7.008888322    12.813763329     8.388739186
 C       -8.849959673    13.860545166     7.157629652
 C       -6.055697290    14.010914287     8.568943709
 C       -4.585321014    13.624484874     8.307927432
 N       -3.711457695    14.765745561     7.959961239
 C       -4.079723379    15.374481591     6.721646230
 C       -3.876017399    14.617872430     5.553088777
 C       -4.210800002    15.146328002     4.317296950
 C       -4.708378423    16.453435668     4.205024613
 C       -4.886946508    17.206007163     5.367120491
 C       -4.579878228    16.677798945     6.617404040
 C       -3.517333998    15.694203289     9.087452804
 C       -5.047515370    16.965239641     2.875395762
 C       -5.528901555    18.195386855     2.652984055
Si       -5.961246180    18.863500881     1.009645121
 C       -6.512857838    17.529436253    -0.129161764
 C       -7.264659680    16.463231474     0.384663829
 C       -7.696862354    15.438448787    -0.451323997
 C       -7.418393312    15.471037860    -1.824462147
 C       -6.678579829    16.540196202    -2.335692801
 C       -6.224550833    17.557520091    -1.496419005
 C       -7.892637283    14.373418886    -2.660000032
 C       -7.677547792    14.268309368    -3.982316000
 C       -8.154969795    13.167458463    -4.811817818
 C       -8.894659245    12.100949290    -4.293703534
 C       -9.332304787    11.067914020    -5.121538902
 C       -9.032681042    11.076432884    -6.487541426
 C       -8.285640035    12.141466576    -7.008388407
 C       -7.850410406    13.171731760    -6.179262761
Si       -9.605596960     9.717554297    -7.589356552
 C      -10.964995514     8.718207822    -6.794416181
 C      -10.215782399    10.475255618    -9.224905447
 C       -8.134297241     8.568959968    -7.963296035
 C       -7.389885080    20.100641672     1.225904442
 C       -4.457298405    19.781326045     0.294939539
 C       -2.685849656    13.775704008    -0.386066022
 C       -5.132667280    12.599636098    -1.869428776
 C       -0.626006088    -0.910252525    -1.550018067
 C       -0.648797430    -0.919642591     1.535879228
 H        1.108066569     2.649972497    -0.840228576
 H        0.189852279     4.897823030    -0.830969826
 H       -3.502460096     3.428851660     0.821385975
 H       -2.625377139     1.161159737     0.828070541
 H       -3.327657856     5.716081081     0.404839092
 H       -0.658140738     6.738306306    -0.783795620
 H       -0.491218458     9.029372243    -1.202849340
 H       -1.378539801    11.294570303    -1.209881928
 H       -5.090945560     9.796531982     0.498921265
 H       -4.174463791     7.546389586     0.457873727
 H       -5.884468240    13.434744129     1.013576469
 H       -4.019767408    11.391321943     2.470557914
 H       -4.458856570    10.910751815     4.669553428
 H       -5.780766971    11.146427613     6.723516408
 H       -8.203522887    14.157563453     4.783070115
 H       -7.018239854    13.752056135     2.689869310
 H       -9.374613055    13.833946400     8.127345634
 H       -9.600103050    13.622401118     6.381790935
 H       -8.478069498    14.884867190     6.992184279
 H       -3.052621393    15.139505182     9.921079756
 H       -4.439295931    16.167662173     9.456126821
 H       -2.807185101    16.484997638     8.787627991
 H       -3.465928519    13.611326720     5.626808907
 H       -4.075025785    14.536269722     3.419544117
 H       -5.276078675    18.222284223     5.306087678
 H       -4.741492769    17.282456439     7.503934690
 H       -4.879781291    16.233021216     2.072139760
 H       -5.676267933    18.907047140     3.480331839
 H       -7.520505291    16.394294196     1.447954137
 H       -8.262847115    14.607253284    -0.034066444
 H       -6.446982210    16.586104931    -3.397896974
 H       -5.644283513    18.364374337    -1.951516734
 H       -8.459110969    13.604052843    -2.125512558
 H       -7.111897619    15.035138973    -4.518844720
 H       -9.147489775    12.073376359    -3.234836457
 H       -9.912170723    10.263715031    -4.659778886
 H       -8.021201869    12.200369207    -8.067960864
 H       -7.270546667    13.989885672    -6.601955607
 H       -7.732849641    12.774343331     9.234951966
 H       -6.452452377    11.851254319     8.439666072
 H       -6.348633509    14.830876582     7.882300835
 H       -6.159663726    14.429537304     9.584714395
 H       -4.152671929    13.119045865     9.197909551
 H       -4.522441682    12.892084610     7.469105863
 H        2.263054792    -1.029144416     0.051914488
 H        2.259414680     0.553465741     0.871855397
 H        2.276495828     0.470018770    -0.910244133
 H      -11.334525818     7.934153360    -7.479320454
 H      -11.825229552     9.359487036    -6.529614407
 H      -10.620866084     8.217891347    -5.872258317
 H       -9.328195752    11.014565645    -9.667359717
 C      -10.686440801     9.426654783   -10.248419509
 C      -11.337131406    11.508727916    -9.013899827
 H       -8.554139007     7.725809276    -8.584093598
 C       -7.016507411     9.248362192    -8.774585942
 C       -7.519756150     7.964466478    -6.687627526
 H       -7.005650436    20.903292929     1.919324218
 C       -7.814001144    20.770299988    -0.092487663
 C       -8.625453619    19.456179678     1.880034904
 H       -4.795381235    20.215572632    -0.689951760
 C       -3.979954573    20.942334234     1.185894642
 C       -3.268682858    18.842511362     0.022548322
 H       -2.063792648    13.559888740    -1.301837202
 C       -3.265756351    15.193855397    -0.529896011
 C       -1.761972636    13.737858981     0.844508829
 H       -5.672642120    13.585748080    -1.752343555
 C       -4.354556136    12.642281870    -3.194997747
 C       -6.184341538    11.478823819    -1.947771059
 H       -0.153513035    -1.934110815    -1.517700166
 C       -2.154623470    -1.089797916    -1.574487690
 C       -0.188334348    -0.223436600    -2.856635939
 H       -1.773569013    -0.927919345     1.440650837
 C       -0.174742636    -2.381577103     1.621172280
 C       -0.291899194    -0.199962998     2.849121677
 H       -9.913940614     8.689291365   -10.502473940
 H      -10.961521216     9.920318917   -11.191884409
 H      -11.578134666     8.876889698    -9.919169565
 H      -11.053399109    12.324357409    -8.333531546
 H      -12.263908430    11.063840315    -8.627927946
 H      -11.597371490    11.983473391    -9.970691953
 H       -7.352765483     9.628038140    -9.747492280
 H       -6.216063690     8.524886276    -8.988618313
 H       -6.540487374    10.078492760    -8.233471633
 H       -8.236821023     7.390885893    -6.086516814
 H       -7.064868562     8.721366211    -6.031752024
 H       -6.714118952     7.264543314    -6.952870595
 H       -7.005091469    21.332948984    -0.575858596
 H       -8.620873171    21.493628004     0.095231020
 H       -8.210025478    20.055666045    -0.828084687
 H       -8.413874159    18.998059615     2.855947134
 H       -9.092030141    18.688579972     1.246104073
 H       -9.398173387    20.217530854     2.057596661
 H       -4.752243476    21.700416714     1.367286603
 H       -3.144146382    21.467953855     0.701727402
 H       -3.604459126    20.604583104     2.162269661
 H       -3.510510167    18.023024525    -0.668611338
 H       -2.860796583    18.392581514     0.939906848
 H       -2.443132554    19.402099343    -0.439077036
 H       -3.896647018    15.322918180    -1.419862989
 H       -2.450459313    15.925387046    -0.620731110
 H       -3.861931976    15.502755417     0.340998104
 H       -1.263068933    12.770013598     0.986591979
 H       -2.286574177    13.979450244     1.780773502
 H       -0.961996354    14.484023922     0.738948826
 H       -3.636984016    13.469744102    -3.253263688
 H       -5.056655737    12.784869661    -4.031578422
 H       -3.813858052    11.709572466    -3.405028657
 H       -6.849958710    11.442877762    -1.076085009
 H       -5.739840703    10.481199484    -2.073026837
 H       -6.826987492    11.633022751    -2.828710977
 H       -2.538990096    -1.665679749    -0.723151424
 H       -2.453771670    -1.641626777    -2.477441568
 H       -2.696690215    -0.133884606    -1.606864614
 H        0.900556283    -0.129509072    -2.956633436
 H       -0.622411122     0.779607242    -2.977620018
 H       -0.526417465    -0.810732921    -3.722397839
 H       -0.455311442    -2.981478242     0.745859630
 H       -0.633463648    -2.874442149     2.490703152
 H        0.911296192    -2.472641350     1.755055825
 H       -0.645558011     0.840467666     2.884311139
 H        0.787199033    -0.188587382     3.052409453
 H       -0.761495739    -0.713178701     3.700273513

