187   

Si        0.000000000     0.000000000     0.000000000
 C        1.865345956     0.000000000     0.000000000
 C       -0.659424742     1.718482313     0.000000000
 C        0.144295276     2.797609844    -0.380765073
 C       -0.364246866     4.096380807    -0.377584913
 C       -1.688960363     4.343189865    -0.008602355
 C       -2.495365419     3.259294863     0.364244539
 C       -1.989344821     1.962862045     0.367690145
 C       -2.263646478     5.683648108     0.009624413
 C       -1.600367336     6.805342668    -0.318335348
 C       -2.179943492     8.144027048    -0.298437740
 C       -3.506897768     8.382426478     0.072184115
 C       -4.022180456     9.677081779     0.077859517
 C       -3.217973484    10.763850249    -0.285212941
 C       -1.888492162    10.528836513    -0.654708410
 C       -1.377099768     9.233007282    -0.659941961
Si       -3.907972364    12.468813721    -0.274345157
 C       -2.576728721    13.716736542    -0.406448750
 C       -2.581100783    14.729302272    -1.283470154
 C       -1.526807533    15.736622742    -1.404501599
 C       -1.669913512    16.741104466    -2.373022172
 C       -0.706976778    17.722723013    -2.536717762
 C        0.400577261    17.790671186    -1.664004139
 C        0.533814029    16.793455100    -0.678335744
 C       -0.404407908    15.773102536    -0.574252651
 N        1.370948537    18.793056234    -1.842150056
 C        0.927447110    20.117665587    -2.313518511
 C        2.432308284    18.878828943    -0.824848855
 C        0.159547272    20.961870081    -1.278203469
 C       -1.362332737    20.736680190    -1.371549449
 N       -2.140432267    21.233805806    -0.228429785
 C       -2.105763194    20.480694087     0.968336375
 C       -1.326281899    19.320826154     1.117699532
 C       -1.330551273    18.620697775     2.315413917
 C       -2.169031256    19.000855154     3.370402592
 C       -2.973674780    20.133703463     3.207592073
 C       -2.946266997    20.867784404     2.030818130
 C       -2.038116457    22.694158527    -0.051769748
 C       -2.130992748    18.225220769     4.610541916
 C       -2.882012957    18.487361399     5.688575053
Si       -2.825441554    17.510497688     7.232881085
 C       -2.387882161    15.750939616     6.925931289
 C       -2.636103281    15.155504299     5.684907044
 C       -2.301220285    13.820979498     5.460766224
 C       -1.723569532    13.049111362     6.471172576
 C       -1.483494135    13.645414428     7.716715138
 C       -1.813169394    14.978609766     7.943686302
 C       -1.355592248    11.650497041     6.286778656
 C       -1.521940224    10.942296913     5.156671367
 C       -1.140553842     9.540964230     5.009234402
 C       -0.561889698     8.818627180     6.056389150
 C       -0.206399768     7.481330347     5.890795355
 C       -0.416707761     6.837529555     4.667564226
 C       -0.996313989     7.558925344     3.614427717
 C       -1.355851125     8.893677527     3.785264850
Si        0.056701604     5.071533798     4.460755927
 C        1.225754045     4.519186832     5.807047993
 C       -1.507628213     3.985962864     4.487040009
 C        0.876234603     4.839451534     2.759911405
 C       -1.557913747    18.295961416     8.414100837
 C       -4.547103439    17.579090264     8.039266001
 C       -5.156064593    12.657175282    -1.696637143
 C       -4.815822519    12.748263001     1.377015403
 C       -0.633745534    -0.927440552    -1.533684629
 C       -0.654536292    -0.878967700     1.557915750
 H        1.185233601     2.665088873    -0.688324413
 H        0.284427554     4.920014834    -0.671644525
 H       -3.531601242     3.428719168     0.651795485
 H       -2.664683651     1.157570698     0.669560130
 H       -3.313496570     5.727379640     0.314944226
 H       -0.551386026     6.764209604    -0.625882215
 H       -4.150839216     7.554328868     0.362606186
 H       -5.065605776     9.803272791     0.380566066
 H       -1.216578129    11.341554539    -0.948181948
 H       -0.340075307     9.069239776    -0.947241705
 H       -1.753935662    13.583472656     0.313242980
 H       -3.398582365    14.886003908    -2.001708073
 H       -2.542150292    16.738825483    -3.028227493
 H       -0.811960485    18.440786050    -3.345403687
 H        1.372999730    16.800309496     0.009930641
 H       -0.266549456    15.002915517     0.186799792
 H        3.136724531    19.687120668    -1.082312707
 H        3.012169161    17.937522374    -0.827547424
 H        2.053716811    19.062173309     0.194659068
 H       -2.075411264    23.192160569    -1.034622343
 H       -1.117726449    23.005768053     0.466833321
 H       -2.905148498    23.058041176     0.526669381
 H       -0.700018141    18.959562571     0.305221235
 H       -0.689707551    17.743606141     2.418479209
 H       -3.637831849    20.448390571     4.012843513
 H       -3.589398018    21.736720609     1.924340263
 H       -1.413932385    17.391639160     4.573610250
 H       -3.583531949    19.334564589     5.705045336
 H       -3.098581236    15.705497287     4.857848995
 H       -2.494052737    13.382678563     4.482542906
 H       -1.035079188    13.061805945     8.518169288
 H       -1.602371987    15.388203499     8.935273576
 H       -0.911748597    11.181647717     7.170984006
 H       -1.962873370    11.397354919     4.265556017
 H       -0.382946303     9.296405257     7.017748294
 H        0.240616914     6.970938486     6.748041226
 H       -1.184904855     7.105532770     2.635153761
 H       -1.805431693     9.436428045     2.954387252
 H        1.839797592    20.670123231    -2.641567119
 H        0.321530717    19.986859972    -3.238053935
 H        0.515590081    20.735220190    -0.255162598
 H        0.385878740    22.032840129    -1.430856001
 H       -1.763261015    21.231662325    -2.286001023
 H       -1.597038504    19.651894566    -1.490534577
 H        2.263555046    -1.028496999     0.062562110
 H        2.260764094     0.561975478     0.865939930
 H        2.275885846     0.458709421    -0.916376407
 H        1.511422985     3.460470469     5.674776258
 H        0.774475164     4.619359710     6.809105249
 H        2.153607135     5.118827691     5.792891391
 H       -1.191090175     2.983353081     4.076994576
 C       -2.070859213     3.765221165     5.902590904
 C       -2.632318165     4.535265075     3.592382245
 H        0.034232397     4.886511557     2.006322595
 C        1.883266035     5.949317323     2.410296169
 C        1.569389225     3.473699454     2.610186983
 H       -1.631383749    17.720664843     9.381690838
 C       -0.116413803    18.167065153     7.889887248
 C       -1.849666804    19.776141300     8.718481141
 H       -4.765963794    18.671212460     8.217147819
 C       -5.641678996    17.015435026     7.115125327
 C       -4.612597726    16.851663876     9.393377063
 H       -5.464287238    13.743173537    -1.694690658
 C       -4.531503625    12.335288852    -3.066968828
 C       -6.427895415    11.807401703    -1.526440333
 H       -5.769294627    12.149495935     1.314951626
 C       -4.009328748    12.232868068     2.581433617
 C       -5.188596304    14.221716749     1.613403590
 H       -0.168745737    -1.954448867    -1.485649879
 C       -2.163393029    -1.097964792    -1.558330514
 C       -0.190210102    -0.264190016    -2.850608734
 H       -1.775309568    -0.932962690     1.434101796
 C       -0.129490384    -2.316965313     1.713688191
 C       -0.361636598    -0.094234785     2.850037792
 H       -1.357528318     3.284607830     6.583750255
 H       -2.948404818     3.104646267     5.858801057
 H       -2.411047216     4.696205123     6.376783082
 H       -2.322852437     4.685314992     2.548275127
 H       -3.039054880     5.489183876     3.957747202
 H       -3.472441373     3.827786209     3.566248134
 H        1.442457793     6.956349697     2.431730986
 H        2.267858824     5.801327179     1.391663245
 H        2.757406999     5.959841354     3.074081030
 H        0.902555557     2.622712468     2.803900548
 H        2.449401089     3.366423112     3.256654270
 H        1.924287746     3.347344917     1.576448317
 H        0.190388388    17.126727214     7.712044759
 H        0.591261514    18.575477422     8.624778088
 H        0.050748784    18.724655612     6.957024867
 H       -2.837571496    19.942774334     9.166240796
 H       -1.771407697    20.417709010     7.829463199
 H       -1.116422051    20.162547716     9.441010219
 H       -5.693980590    17.521170130     6.141050970
 H       -6.629430047    17.139601151     7.580724963
 H       -5.525309694    15.938792409     6.923556923
 H       -3.924525793    17.263082482    10.142720854
 H       -4.412813235    15.773596383     9.310209429
 H       -5.621713883    16.942830670     9.820754133
 H       -3.632530698    12.925136565    -3.292582537
 H       -5.250943099    12.549589362    -3.869743648
 H       -4.260659323    11.274764031    -3.171819419
 H       -6.990423148    12.040719237    -0.613628036
 H       -6.225986940    10.727393372    -1.532872916
 H       -7.116595354    11.992617449    -2.363950220
 H       -3.800326744    11.154433773     2.531816821
 H       -4.578301973    12.389789252     3.510248784
 H       -3.050220477    12.756530882     2.702533673
 H       -5.831801958    14.640230156     0.829081392
 H       -4.310082167    14.878671714     1.703021096
 H       -5.747688466    14.323688827     2.554854364
 H       -2.553892746    -1.654422135    -0.696949856
 H       -2.463438935    -1.666540163    -2.450767042
 H       -2.699463518    -0.139847711    -1.612578169
 H        0.899348537    -0.177524029    -2.950689283
 H       -0.618835431     0.738795325    -2.989176377
 H       -0.529799455    -0.863888148    -3.707387849
 H       -0.356267506    -2.959544972     0.853280607
 H       -0.599133494    -2.795959628     2.585209343
 H        0.953985120    -2.360841179     1.887117993
 H       -0.774454299     0.925498529     2.839800385
 H        0.710959804    -0.017892009     3.072635573
 H       -0.820089200    -0.601378415     3.711017807

