187   

Si        0.000000000     0.000000000     0.000000000
 C        1.865391450     0.000000000     0.000000000
 C       -0.689786604     1.705004845     0.000000000
 C        0.121896164     2.830452007     0.170522082
 C       -0.431136489     4.111828120     0.165861092
 C       -1.808414031     4.289889919     0.023821500
 C       -2.622249692     3.159613939    -0.138570539
 C       -2.071204864     1.883094384    -0.158282656
 C       -2.446124078     5.600014872     0.011198261
 C       -1.822228586     6.784623506     0.130312524
 C       -2.525400934     8.064482273     0.109261574
 C       -3.914708212     8.128873151    -0.039006611
 C       -4.571972342     9.354781297    -0.057401523
 C       -3.851332686    10.551157880     0.058667306
 C       -2.461314861    10.493226060     0.199965185
 C       -1.807664690     9.261011985     0.224343893
Si       -4.805342775    12.117354894     0.023919607
 C       -3.970638454    13.622573949     0.623419901
 C       -3.016492266    13.725687291     1.557059733
 C       -2.429100253    15.014066234     1.943753396
 C       -1.433658380    15.050882528     2.928666031
 C       -0.860259187    16.257134342     3.314045423
 C       -1.317487826    17.456466709     2.752794154
 C       -2.332985013    17.432533474     1.791940397
 C       -2.883714074    16.219619954     1.398390235
 N       -0.669972202    18.662001760     3.206392108
 C        0.356163994    19.152472845     2.263057555
 C       -1.635749314    19.702798772     3.607829714
 C       -0.140095368    19.759712170     0.932420432
 C        0.342939851    18.983887047    -0.309397991
 N       -0.589066673    17.877443310    -0.620385116
 C       -0.002099612    16.606990345    -0.796521429
 C        0.866552074    16.135267676     0.210069865
 C        1.468607182    14.896727978     0.087504547
 C        1.192842260    14.063777358    -1.008888991
 C        0.302096800    14.516181651    -1.983121855
 C       -0.304410543    15.764317576    -1.878580122
 C       -1.639854225    18.263997446    -1.573383652
 C        1.865972120    12.766549332    -1.073881985
 C        1.709711428    11.862903845    -2.050441583
Si        2.576088550    10.252153784    -2.085616431
 C        1.463456008     8.823296039    -2.378662717
 C        0.072989203     8.943905468    -2.428083322
 C       -0.723819612     7.819928073    -2.654683739
 C       -0.146268408     6.563556688    -2.847110509
 C        1.250285763     6.447279198    -2.806046273
 C        2.046601399     7.563212621    -2.577737020
 C       -0.922137987     5.354590318    -3.087479481
 C       -2.262136936     5.286651386    -3.157544947
 C       -2.990097108     4.045628689    -3.401299769
 C       -2.332968448     2.825369661    -3.581080657
 C       -3.050848139     1.654063400    -3.812486471
 C       -4.448508915     1.671539636    -3.826319717
 C       -5.111761994     2.889740129    -3.628099189
 C       -4.390387206     4.062915227    -3.420864872
Si       -5.397177398     0.126178313    -4.131643502
 C       -4.253013935    -1.327440237    -4.388397319
 C       -6.481210908    -0.161037895    -2.592828839
 C       -6.504017738     0.292002817    -5.668380013
 C        3.869616304    10.302735210    -3.480521756
 C        3.459072216     9.978439574    -0.416847474
 C       -5.227523704    12.468376128    -1.804350989
 C       -6.417262104    11.901524362     1.012350569
 C       -0.647801522    -0.873123587    -1.566023031
 C       -0.622393249    -0.943485502     1.530511187
 H        1.203911463     2.749616452     0.299600896
 H        0.220822809     4.976220595     0.278248674
 H       -3.696942553     3.280001985    -0.266147102
 H       -2.755011927     1.042267857    -0.309115595
 H       -3.534923610     5.561373698    -0.108933019
 H       -0.737634589     6.846013020     0.243497265
 H       -4.499091901     7.215294731    -0.134598592
 H       -5.660226978     9.334481221    -0.166522142
 H       -1.850710892    11.398144711     0.286704657
 H       -0.723167335     9.232336031     0.330604441
 H       -4.355181535    14.530275449     0.121607476
 H       -2.597036098    12.865391092     2.090398332
 H       -1.085400152    14.123602020     3.381401929
 H       -0.067949233    16.285115408     4.060231888
 H       -2.683172680    18.356019553     1.339800369
 H       -3.667515027    16.218702280     0.641771732
 H       -1.086159447    20.522294084     4.099878415
 H       -2.329787882    19.273919396     4.351682555
 H       -2.231847772    20.125667720     2.786099886
 H       -2.099984210    19.211028116    -1.243723965
 H       -2.435957332    17.496765708    -1.565863664
 H       -1.278675299    18.393461845    -2.606569579
 H        1.044397449    16.741890247     1.096550175
 H        2.148669841    14.556206115     0.868763561
 H        0.065449801    13.882934612    -2.838965765
 H       -0.993702534    16.081935318    -2.653402001
 H        2.527312308    12.596376855    -0.211709322
 H        1.045720767    12.050556293    -2.907485875
 H       -0.432936083     9.903888062    -2.283524988
 H       -1.807501064     7.931931190    -2.675116171
 H        1.716831484     5.475538796    -2.955030321
 H        3.129761584     7.412432527    -2.564698558
 H       -0.317785078     4.448323606    -3.207429056
 H       -2.880605688     6.177981803    -3.030561145
 H       -1.244950391     2.781335354    -3.548032524
 H       -2.478023673     0.734005449    -3.962550597
 H       -6.202417602     2.960292029    -3.623873316
 H       -4.921210545     5.001145829    -3.273734024
 H        0.954658037    19.910873422     2.817903720
 H        1.048296650    18.300678048     2.067491063
 H       -1.245541307    19.808319652     0.924527722
 H        0.201934240    20.807719028     0.856679793
 H        0.422225516    19.681087743    -1.174363585
 H        1.373360574    18.598961730    -0.143967301
 H        2.263103513    -1.028837998    -0.051200381
 H        2.272666064     0.468671938     0.913064445
 H        2.263654687     0.553761015    -0.869010249
 H       -4.824263391    -2.259902178    -4.541546788
 H       -3.597629721    -1.480430680    -3.511417260
 H       -3.607427628    -1.183827032    -5.272534624
 H       -7.164966450     0.734821833    -2.530335441
 C       -7.358985657    -1.421036721    -2.685110358
 C       -5.655382176    -0.215390670    -1.293818594
 H       -6.925351949    -0.739989462    -5.846479290
 C       -7.688540050     1.259728005    -5.498171202
 C       -5.707211755     0.704411078    -6.920170783
 H        4.418429648     9.318282692    -3.431370805
 C        3.225594381    10.416386101    -4.873650947
 C        4.899374226    11.432659174    -3.307358655
 H        4.038108261    10.926416540    -0.218738553
 C        2.459779444     9.770187108     0.736970573
 C        4.461913752     8.811707378    -0.413659749
 H       -5.858754907    13.402273676    -1.804379943
 C       -3.959737642    12.742610383    -2.634606492
 C       -6.035139630    11.347737420    -2.479447415
 H       -7.002922207    11.092749603     0.488040462
 C       -6.154282724    11.440850635     2.456988667
 C       -7.286183379    13.171577407     1.040817557
 H       -1.766049801    -0.713535266    -1.568589870
 C       -0.079891899    -0.255771097    -2.857189746
 C       -0.387865041    -2.389677682    -1.583543877
 H       -0.123080296    -1.954271857     1.486473721
 C       -0.208640474    -0.264343936     2.849041923
 C       -2.145623270    -1.166016548     1.549218358
 H       -8.024870900    -1.424613581    -3.557707128
 H       -8.010964038    -1.491024556    -1.802406438
 H       -6.773629246    -2.349768312    -2.708721881
 H       -5.050089184     0.688582816    -1.130367505
 H       -4.981977832    -1.081573802    -1.249410224
 H       -6.324594146    -0.298299416    -0.425845853
 H       -8.336824551     1.012227017    -4.648245079
 H       -8.329362513     1.227434567    -6.391589574
 H       -7.371714606     2.305971841    -5.388968045
 H       -4.893442319     0.010516755    -7.167892376
 H       -5.270510946     1.710227132    -6.836110162
 H       -6.368638036     0.728235915    -7.797889270
 H        2.511801406     9.608558668    -5.089336095
 H        3.999096588    10.356738986    -5.652451636
 H        2.704763050    11.371031796    -5.028725494
 H        5.462938956    11.367692167    -2.367793165
 H        4.447486808    12.433845809    -3.355547617
 H        5.642994728    11.391681629    -4.115973611
 H        1.728883338    10.584921321     0.838195188
 H        2.995553365     9.715618637     1.694689723
 H        1.896716248     8.829988238     0.644921769
 H        5.235651144     8.896984675    -1.186765409
 H        3.977065052     7.832046170    -0.526296483
 H        4.994482525     8.778531994     0.547974619
 H       -3.349539572    13.568163397    -2.240527871
 H       -4.233742922    13.022608548    -3.660878853
 H       -3.307141053    11.860990729    -2.718797812
 H       -6.993350533    11.142534644    -1.986214338
 H       -5.479957451    10.400452236    -2.543628612
 H       -6.277982224    11.629993462    -3.514004838
 H       -5.589166804    10.499924571     2.517682773
 H       -7.106263911    11.261376334     2.975971513
 H       -5.613981558    12.190098846     3.053486242
 H       -7.569412001    13.529062803     0.042974474
 H       -6.805248669    14.004945193     1.572627784
 H       -8.227033914    12.970619291     1.573105143
 H       -0.262788776     0.825677838    -2.936362944
 H       -0.552311243    -0.718326334    -3.735643211
 H        1.000090964    -0.417420836    -2.969661465
 H       -0.838587533    -2.917962163    -0.733540813
 H        0.680202416    -2.642004073    -1.602421661
 H       -0.824276842    -2.835372541    -2.489140886
 H        0.876978970    -0.144827305     2.956947641
 H       -0.537510069    -0.870532577     3.705036106
 H       -0.666363705     0.727050147     2.980054687
 H       -2.524869326    -1.677535753     0.655586468
 H       -2.708857623    -0.229241938     1.668027936
 H       -2.421237829    -1.798171898     2.405535275

