187   

Si        0.000000000     0.000000000     0.000000000
 C        1.864900067     0.000000000     0.000000000
 C       -0.675726022     1.712602222     0.000000000
 C        0.105326249     2.792295441     0.424536802
 C       -0.413125112     4.087146492     0.421880089
 C       -1.719527079     4.331215047    -0.008069807
 C       -2.502534481     3.248105973    -0.429495347
 C       -1.990535237     1.953948481    -0.420607232
 C       -2.305294059     5.666464767    -0.028979768
 C       -1.674031886     6.789584433     0.352783690
 C       -2.275938300     8.118205167     0.325209860
 C       -1.514894266     9.214592266     0.749337248
 C       -2.051305590    10.500462152     0.739040023
 C       -3.369802041    10.711954597     0.323325971
 C       -4.134938044     9.617255140    -0.097391679
 C       -3.589746741     8.335579046    -0.101549991
Si       -4.129448998    12.387449325     0.289481261
 C       -5.904262347    12.164339325     0.657854512
 C       -6.927518442    12.665156684    -0.044947667
 C       -8.333655341    12.452443211     0.299173016
 C       -9.318607891    13.028513547    -0.513992062
 C      -10.664961913    12.860511111    -0.236360294
 C      -11.075979189    12.042905039     0.838830313
 C      -10.086613710    11.451909445     1.647743808
 C       -8.741277842    11.673687421     1.386524026
 N      -12.447871144    11.885229820     1.104262066
 C      -13.360131252    11.910088825    -0.054874254
 C      -12.817088538    10.901531397     2.133730051
 C      -12.984007655    10.952329958    -1.200112417
 C      -13.560252782     9.536792236    -1.007593660
 N      -12.649545602     8.451794597    -1.427335634
 C      -11.583036951     8.198828410    -0.520100518
 C      -11.934019408     7.764687812     0.772894021
 C      -10.947894535     7.499327064     1.708527705
 C       -9.588965242     7.592701943     1.370956807
 C       -9.246193583     7.998192715     0.079166617
 C      -10.227399896     8.304970727    -0.859283943
 C      -12.273924634     8.540491522    -2.848305227
 C       -8.596812258     7.298958339     2.407151651
 C       -7.269873485     7.347148339     2.229875241
Si       -6.072133369     6.969199253     3.563494438
 C       -6.752214278     5.744838270     4.756125927
 C       -7.585973150     4.719502339     4.293887236
 C       -8.112688227     3.780809676     5.178887972
 C       -7.808640451     3.836003200     6.542374154
 C       -6.967720267     4.857716071     7.001811360
 C       -6.443944403     5.800578425     6.120119128
 C       -8.337400631     2.874581553     7.504312168
 C       -9.151352320     1.851556354     7.193243295
 C       -9.681605732     0.888742620     8.152709980
 C       -9.385351337     0.942015905     9.517134427
 C       -9.914723951     0.000110930    10.399288928
 C      -10.758957166    -1.013409587     9.935461850
 C      -11.058295162    -1.068596482     8.567371475
 C      -10.523867170    -0.130708578     7.688537232
Si      -11.466405602    -2.264561415    11.085264349
 C      -11.219250842    -1.776369592    12.868719464
 C      -13.322793105    -2.441022943    10.702584913
 C      -10.625011587    -3.946735595    10.791727215
 C       -4.523812766     6.201057571     2.769804435
 C       -5.589878940     8.587153200     4.430727336
 C       -3.346468843    13.521001329     1.598516297
 C       -3.857215693    13.156807593    -1.426712137
 C       -0.652572945    -0.915678512    -1.536114033
 C       -0.629404591    -0.905515635     1.551285341
 H        1.136112910     2.663457513     0.766009412
 H        0.214471960     4.910600465     0.757479939
 H       -3.523586598     3.417040196    -0.767360185
 H       -2.649573054     1.147851240    -0.755251109
 H       -3.337105751     5.706259766    -0.394443184
 H       -0.643734722     6.756928998     0.716129694
 H       -0.491581473     9.064692490     1.087032588
 H       -1.409442794    11.320511362     1.070661972
 H       -5.173457734     9.727465816    -0.430366645
 H       -4.200356815     7.500286619    -0.441474006
 H       -6.083978553    11.560008085     1.564508226
 H       -6.788699101    13.279129499    -0.943751303
 H       -9.025473594    13.636946037    -1.369793685
 H      -11.401891488    13.361282160    -0.856524861
 H      -10.358561690    10.807409425     2.478485242
 H       -7.995684260    11.208379195     2.035143171
 H      -13.912096594    10.861813078     2.247304163
 H      -12.405792739    11.230253524     3.106672707
 H      -12.447623155     9.882922957     1.921276668
 H      -13.193931548     8.566720507    -3.457349317
 H      -11.720516086     7.627789679    -3.133093356
 H      -11.662477560     9.419437883    -3.105554930
 H      -12.982781902     7.628299331     1.027121075
 H      -11.234594441     7.186674828     2.713267650
 H       -8.196278923     8.092894178    -0.202387588
 H       -9.928436975     8.645796227    -1.845964592
 H       -9.055044400     7.019377962     3.367225796
 H       -6.826773388     7.638480016     1.266226589
 H       -7.854557441     4.623080583     3.236265422
 H       -8.763923958     2.997432376     4.795877688
 H       -6.717754760     4.917994324     8.059148422
 H       -5.793861924     6.574810137     6.536385749
 H       -8.020324051     3.039660741     8.538114021
 H       -9.466928209     1.686936681     6.158731446
 H       -8.733910058     1.723381462     9.904320273
 H       -9.645789536     0.092634216    11.455163583
 H      -11.712773518    -1.837791075     8.147785453
 H      -10.766331294    -0.191007571     6.629258238
 H      -14.395568177    11.709621613     0.297286136
 H      -13.376673352    12.960111474    -0.435310601
 H      -13.327305792    11.371690797    -2.162439292
 H      -11.877986264    10.896011295    -1.288536809
 H      -13.838202526     9.369897351     0.056407712
 H      -14.501604847     9.420753979    -1.590475895
 H        2.262786404    -1.029324459    -0.050890962
 H        2.276313737     0.470362201     0.910084439
 H        2.259439620     0.552118858    -0.872439832
 H      -11.683481094    -2.511359878    13.550271546
 H      -11.679359238    -0.793567878    13.077921999
 H      -10.148637315    -1.710311634    13.130351676
 H      -13.385654728    -2.777893430     9.626946934
 C      -14.031296957    -3.497251169    11.569145663
 C      -14.078473097    -1.105125501    10.821803598
 H      -11.058854707    -4.642880869    11.566543848
 C      -10.907416301    -4.545858444     9.402416253
 C       -9.100830987    -3.887962788    11.002158188
 H       -4.204164807     6.910900775     1.950768142
 C       -3.344537299     6.049489730     3.745205259
 C       -4.824112894     4.831908276     2.134267567
 H       -4.861729816     8.303306274     5.244021429
 C       -4.888522541     9.577043607     3.486686357
 C       -6.794568675     9.287447420     5.085407992
 H       -2.257597179    13.614206293     1.317303762
 C       -3.958359589    14.933396546     1.606709136
 C       -3.421816271    12.937511511     3.020730752
 H       -4.440892185    14.122621146    -1.431146256
 C       -2.382163606    13.489616306    -1.713956444
 C       -4.393341257    12.267533544    -2.563782940
 H       -1.777157132    -0.924871819    -1.438178600
 C       -0.299756474    -0.192081897    -2.848303080
 C       -0.177784686    -2.376994984    -1.626333522
 H       -0.161236714    -1.931336058     1.520102601
 C       -0.188520844    -0.217955033     2.856478542
 C       -2.158771479    -1.077568697     1.577631357
 H      -13.591190391    -4.498903692    11.480430241
 H      -15.081542655    -3.594728815    11.257773613
 H      -14.051054527    -3.233666514    12.634917846
 H      -13.661339228    -0.312663533    10.183866378
 H      -14.110250278    -0.719861672    11.849534744
 H      -15.123876149    -1.233668881    10.507106789
 H      -11.975790219    -4.690190297     9.198084191
 H      -10.443460879    -5.539744362     9.321346756
 H      -10.485091655    -3.944364409     8.585092628
 H       -8.810961958    -3.545446151    12.003833760
 H       -8.593571682    -3.242696752    10.270362034
 H       -8.665133830    -4.890260175    10.882402402
 H       -3.009644308     7.002151664     4.174315428
 H       -2.475032526     5.632852333     3.213347030
 H       -3.556701263     5.359739909     4.573077485
 H       -5.588896074     4.874066692     1.348481459
 H       -5.139588346     4.077414474     2.869141624
 H       -3.912858792     4.427682352     1.665758518
 H       -3.966501520     9.180369238     3.037782972
 H       -4.594249997    10.481546287     4.037276427
 H       -5.536166882     9.908518868     2.662558282
 H       -7.315388569     8.660908499     5.821652412
 H       -7.541700343     9.625915331     4.352786261
 H       -6.461473378    10.184424039     5.626016249
 H       -3.863893646    15.455456899     0.645932912
 H       -3.445651823    15.562055805     2.348674835
 H       -5.022601859    14.936733540     1.884064153
 H       -2.964915983    11.941826649     3.107869427
 H       -4.452007991    12.868547892     3.398091232
 H       -2.880035418    13.586568721     3.723342963
 H       -1.951826005    14.209203465    -1.005769374
 H       -2.286787974    13.946341496    -2.709868792
 H       -1.736127615    12.600426970    -1.723550896
 H       -5.456861233    12.012979139    -2.458569514
 H       -3.837423078    11.324143432    -2.663802018
 H       -4.293562302    12.786271821    -3.527501743
 H       -0.657248659     0.847012703    -2.881001904
 H       -0.768677197    -0.705108324    -3.699996452
 H        0.778970451    -0.176670428    -3.053218176
 H       -0.457990420    -2.979930237    -0.752870456
 H        0.908209729    -2.467364344    -1.760943790
 H       -0.636530352    -2.867273137    -2.497333019
 H        0.900447393    -0.125929030     2.955653873
 H       -0.526915254    -0.804150842     3.723179996
 H       -0.621258607     0.785813863     2.977548910
 H       -2.548928018    -1.643550547     0.722510759
 H       -2.695968605    -0.119115963     1.621694675
 H       -2.458238608    -1.636637615     2.476354517

