187   

Si        0.000000000     0.000000000     0.000000000
 C        1.865270991     0.000000000     0.000000000
 C       -0.681690207     1.709745835     0.000000000
 C        0.122611468     2.808280288     0.319309827
 C       -0.405629849     4.099224384     0.315831948
 C       -1.748527615     4.320966861    -0.000025405
 C       -2.554227494     3.218579840    -0.315542208
 C       -2.029610213     1.929203548    -0.314827804
 C       -2.344735913     5.652567864    -0.016536435
 C       -1.686432147     6.790228502     0.263346162
 C       -2.284182107     8.121224372     0.246386271
 C       -3.628217941     8.339066269    -0.070148955
 C       -4.159105724     9.628077587    -0.074487054
 C       -3.354537222    10.728806650     0.238342073
 C       -2.008007301    10.513911516     0.557446435
 C       -1.481332892     9.224856200     0.562497053
Si       -4.047230759    12.436705201     0.235290671
 C       -2.641623148    13.604623399     0.127705378
 C       -2.423008309    14.666146171     0.914185821
 C       -1.273734307    15.566520534     0.776417312
 C       -1.149288991    16.645914655     1.657847675
 C       -0.078254119    17.530679633     1.571162916
 C        0.931683869    17.313579539     0.624896125
 C        0.814972313    16.225627407    -0.260157703
 C       -0.282453044    15.381944441    -0.196440683
 N        2.073117499    18.158838652     0.452210012
 C        1.953914693    19.502236719     1.061891476
 C        3.315568675    17.451550800     0.839915203
 C        3.174036324    20.406144014     0.794844523
 C        3.157985258    21.125224573    -0.570975503
 N        3.787197641    20.423018085    -1.706416046
 C        3.003659504    19.394720919    -2.290292863
 C        1.725149960    19.754461738    -2.764225448
 C        0.909038587    18.801144533    -3.344712230
 C        1.347781171    17.477104184    -3.504944345
 C        2.631495355    17.136715471    -3.076919467
 C        3.468378118    18.087587544    -2.500223480
 C        5.210201887    20.119890774    -1.491444526
 C        0.428352864    16.527374668    -4.126959246
 C        0.683560571    15.231696927    -4.355308011
Si       -0.561621999    14.148139969    -5.145584795
 C       -2.248111385    14.756635227    -4.713078952
 C       -2.461660467    15.430600722    -3.502621294
 C       -3.729440068    15.894169083    -3.165595572
 C       -4.814029687    15.705367048    -4.032672974
 C       -4.600289644    15.030605256    -5.237256366
 C       -3.332849492    14.553684083    -5.571607169
 C       -6.123582223    16.209563440    -3.634500787
 C       -7.247263876    16.086974320    -4.360796306
 C       -8.553216069    16.594667940    -3.954325721
 C       -8.756554154    17.268425212    -2.747133926
 C      -10.022396748    17.737745383    -2.396965199
 C      -11.115722607    17.535559288    -3.244853443
 C      -10.914642935    16.858412891    -4.455366612
 C       -9.648902320    16.396535001    -4.805055836
Si      -12.792912337    18.148387794    -2.797937855
 C      -12.877775386    18.674321912    -1.010131596
 C      -13.238521361    19.638689595    -3.895016048
 C      -14.043804460    16.753510535    -3.133849464
 C       -0.318380370    14.144968307    -7.029029617
 C       -0.360257819    12.373286479    -4.492941166
 C       -5.215076193    12.614092727    -1.251133317
 C       -5.050398861    12.715052387     1.825857817
 C       -0.653177446    -0.905933798    -1.541857871
 C       -0.615438993    -0.922615899     1.546995397
 H        1.180025327     2.697654319     0.574812062
 H        0.242357952     4.937651541     0.564663496
 H       -3.603029753     3.369193938    -0.564279934
 H       -2.706420560     1.108884231    -0.569788167
 H       -3.405904557     5.674961034    -0.281475995
 H       -0.625471803     6.768318607     0.528860867
 H       -4.273470600     7.498735316    -0.318170595
 H       -5.216578693     9.735756470    -0.331382364
 H       -1.333915574    11.337565714     0.814593399
 H       -0.433386163     9.076311729     0.814976177
 H       -1.947521012    13.363678329    -0.697680261
 H       -3.096132473    14.946775095     1.733529993
 H       -1.907818112    16.810506041     2.422414741
 H       -0.026030461    18.367650572     2.259772487
 H        1.577816615    16.079077433    -1.026028745
 H       -0.364519527    14.561821091    -0.912303113
 H        4.152379177    17.871757525     0.256300305
 H        3.253831978    16.381282120     0.580536313
 H        3.544585972    17.528638770     1.913479150
 H        5.727588362    21.034385394    -1.154820413
 H        5.662082448    19.827021183    -2.456710039
 H        5.403707753    19.321728365    -0.758205829
 H        1.380227458    20.780278999    -2.665494622
 H       -0.087557998    19.085510179    -3.684528610
 H        2.995076288    16.117267418    -3.204026248
 H        4.461381738    17.793878135    -2.179923639
 H       -0.529803520    16.998005282    -4.404305468
 H        1.643417936    14.770810761    -4.093509606
 H       -1.654971513    15.603553284    -2.778862176
 H       -3.872128088    16.413633848    -2.218476081
 H       -5.426411346    14.868959377    -5.926378052
 H       -3.229414458    14.027508229    -6.524052618
 H       -6.140050507    16.725632556    -2.669086996
 H       -7.233348845    15.578080206    -5.328532347
 H       -7.923113788    17.435922747    -2.067182930
 H      -10.119219633    18.259303598    -1.440771749
 H      -11.732175097    16.670785366    -5.157154019
 H       -9.512159633    15.874657309    -5.750238754
 H        1.040680676    19.971480094     0.625365161
 H        1.799239938    19.442773878     2.164268112
 H        3.202473356    21.178842315     1.590140904
 H        4.114033611    19.839638169     0.912900420
 H        2.108681251    21.375625939    -0.847460931
 H        3.690309501    22.101297373    -0.472928231
 H        2.262911679    -1.029690350    -0.043679534
 H        2.275542061     0.476519070     0.907497702
 H        2.260757121     0.545898837    -0.875846124
 H      -13.898192690    18.999182479    -0.738899754
 H      -12.193932843    19.514705552    -0.797713256
 H      -12.606163440    17.839693906    -0.338613524
 H      -14.243828359    19.996648552    -3.528243734
 C      -12.236183221    20.798448868    -3.749306132
 C      -13.373597428    19.289188778    -5.387830168
 H      -13.966151430    16.528416842    -4.237424887
 C      -13.706690206    15.462461453    -2.365952556
 C      -15.500791799    17.149035135    -2.835162107
 H       -1.083800221    13.427595067    -7.444281683
 C       -0.572761318    15.528784328    -7.653586438
 C        1.074789874    13.651858219    -7.459297985
 H        0.662989400    12.034744472    -4.824515399
 C       -0.416655366    12.295018703    -2.956791860
 C       -1.400097769    11.398863025    -5.074051305
 H       -5.969360017    11.779489382    -1.145027566
 C       -5.985775346    13.943860785    -1.257245557
 C       -4.496749667    12.428789568    -2.597378613
 H       -5.350626399    13.802989071     1.815054081
 C       -6.333986757    11.868356387     1.895486388
 C       -4.222122240    12.457642387     3.098116034
 H       -1.777894004    -0.910668568    -1.445041988
 C       -0.296710825    -0.175687303    -2.849381823
 C       -0.183524790    -2.368308032    -1.640012962
 H       -0.123600224    -1.937509800     1.513236914
 C       -0.191447108    -0.229750048     2.855048177
 C       -2.140033980    -1.132634889     1.572261338
 H      -12.142134920    21.167662860    -2.719988474
 H      -12.562248846    21.656387179    -4.354654636
 H      -11.228014626    20.538339813    -4.102922787
 H      -14.130666495    18.520909790    -5.589309183
 H      -12.426479059    18.956274908    -5.835307083
 H      -13.682701188    20.179386215    -5.955004645
 H      -12.695075137    15.085574251    -2.574260674
 H      -14.398963057    14.659361290    -2.656218428
 H      -13.800685468    15.573136961    -1.277588630
 H      -15.839107281    18.024403138    -3.404505494
 H      -15.679971177    17.352325780    -1.771081939
 H      -16.176512063    16.325411881    -3.108132730
 H       -1.577009877    15.923431340    -7.445176349
 H       -0.485227635    15.472011918    -8.747554145
 H        0.154109868    16.285947109    -7.324976204
 H        1.301452541    12.633527506    -7.118943868
 H        1.885426409    14.309435923    -7.115173757
 H        1.143150231    13.629946905    -8.556572710
 H        0.339780355    12.916317431    -2.459943387
 H       -0.235652096    11.262098460    -2.624707797
 H       -1.404374253    12.571040523    -2.558540238
 H       -1.368799127    11.325051256    -6.167875068
 H       -2.430941449    11.650469626    -4.783794754
 H       -1.216830002    10.382849724    -4.693813670
 H       -6.642531592    14.072109817    -0.388114287
 H       -6.636517712    13.996504319    -2.144395508
 H       -5.325979809    14.820806528    -1.314444281
 H       -3.951117021    11.479717201    -2.678864551
 H       -3.789249226    13.242977291    -2.821033654
 H       -5.227275015    12.436827305    -3.419258472
 H       -7.029445357    12.062107498     1.068471308
 H       -6.885525446    12.097043293     2.818759551
 H       -6.133215139    10.788160196     1.920308490
 H       -3.302071464    13.055101100     3.153078313
 H       -3.934254241    11.402451260     3.211496147
 H       -4.810652583    12.713336575     3.990166730
 H       -0.651984656     0.864490080    -2.875920618
 H       -0.766347855    -0.682247244    -3.704511536
 H        0.782175521    -0.161668737    -3.053063519
 H       -0.466311418    -2.975141885    -0.770172975
 H        0.902274226    -2.461482717    -1.774278308
 H       -0.643234886    -2.851951450    -2.514188192
 H        0.895317012    -0.113661825     2.955363791
 H       -0.517633774    -0.825505218     3.719626533
 H       -0.645244509     0.764283117     2.978051212
 H       -2.516636062    -1.698030226     0.710572115
 H       -2.699912526    -0.188280990     1.627532621
 H       -2.424681827    -1.709160415     2.464530687

