187   

Si        0.000000000     0.000000000     0.000000000
 C        1.865442672     0.000000000     0.000000000
 C       -0.681256138     1.710193642     0.000000000
 C        0.132821597     2.813662262     0.273964651
 C       -0.396728523     4.104145940     0.270580520
 C       -1.750358976     4.320455469     0.000297304
 C       -2.565583557     3.213257678    -0.270922495
 C       -2.039521014     1.924540069    -0.271447875
 C       -2.348140811     5.651469627    -0.014196122
 C       -1.680964374     6.793306975     0.224988527
 C       -2.280167000     8.123775785     0.210145848
 C       -3.634823105     8.336348292    -0.060673269
 C       -4.166802940     9.625452405    -0.064692601
 C       -3.348589823    10.730460277     0.188296651
 C       -1.989795391    10.522390965     0.458666910
 C       -1.465388920     9.232864013     0.474374190
Si       -4.027070126    12.440504544     0.188440944
 C       -2.687373539    13.608805462    -0.234739572
 C       -2.371483475    14.717417937     0.446056185
 C       -1.287083636    15.627807088     0.070466958
 C       -1.057417213    16.758526157     0.869659930
 C       -0.045961185    17.653296746     0.562077528
 C        0.795400801    17.405867370    -0.536446664
 C        0.580863622    16.276089493    -1.332808040
 C       -0.462720979    15.404568335    -1.033684782
 N        1.814895436    18.380739861    -0.784453774
 C        2.935750011    18.243903872     0.174346811
 C        2.267129118    18.461128539    -2.184578152
 C        3.774935739    16.961899149    -0.004726961
 C        4.483792567    16.543230655     1.298433693
 N        3.840335632    15.427913358     2.023156684
 C        2.568091606    15.704422573     2.577400588
 C        2.420347176    16.859871712     3.372383265
 C        1.192288261    17.167746295     3.934024175
 C        0.090755563    16.313511310     3.778852338
 C        0.252571780    15.147931884     3.025584581
 C        1.473757064    14.834711516     2.440076161
 C        3.975712384    14.143924704     1.313897748
 C       -1.181956496    16.691292793     4.395140606
 C       -2.305095041    15.964377050     4.320911711
Si       -3.882552194    16.462153171     5.101985396
 C       -3.609036905    17.460244434     6.621079969
 C       -2.498612623    17.197789289     7.432114411
 C       -2.273446504    17.943229781     8.588058605
 C       -3.157618580    18.957514535     8.967043728
 C       -4.272703743    19.212726063     8.158493407
 C       -4.498037521    18.472523244     7.000316669
 C       -2.962111301    19.762951519    10.168109660
 C       -1.937271082    19.620222311    11.025637955
 C       -1.740354031    20.424725504    12.226964659
 C       -2.620074362    21.441975581    12.605673954
 C       -2.393226982    22.186887020    13.762988773
 C       -1.275822860    21.933299459    14.564567598
 C       -0.391646091    20.913673531    14.186567536
 C       -0.623539362    20.168428380    13.034020991
Si       -0.962561958    22.907596152    16.094833513
 C       -2.034354952    24.432672909    16.168285518
 C       -1.329477907    21.827291942    17.618563427
 C        0.877437868    23.394288581    16.127557265
 C       -4.873910075    17.473176792     3.827461966
 C       -4.872243161    14.899356298     5.534545335
 C       -5.456570670    12.632875127    -1.041936865
 C       -4.649683380    12.777118324     1.958072235
 C       -0.656087160    -0.902655151    -1.542250896
 C       -0.610242215    -0.925217949     1.547542548
 H        1.198808979     2.707439216     0.493013343
 H        0.259160504     4.946337411     0.483487485
 H       -3.622655570     3.359791518    -0.484565228
 H       -2.723624644     1.100268064    -0.492259384
 H       -3.418316833     5.669342738    -0.240700752
 H       -0.611025932     6.775784705     0.451865545
 H       -4.289361564     7.492081902    -0.268955888
 H       -5.234027239     9.729513003    -0.277801203
 H       -1.305301971    11.352837925     0.664076159
 H       -0.408824234     9.087332686     0.691053034
 H       -2.137814639    13.326433518    -1.148321093
 H       -2.901492116    15.030544457     1.356474330
 H       -1.692145129    16.948115139     1.739473595
 H        0.111304918    18.543612754     1.169415673
 H        1.218926920    16.072872816    -2.187098278
 H       -0.623546993    14.534214243    -1.670089080
 H        2.904156193    19.356140182    -2.293131254
 H        1.388801266    18.602378012    -2.838798362
 H        2.832734258    17.587554158    -2.539929978
 H        5.030313590    13.997248219     1.024811949
 H        3.352737152    14.060594376     0.408929514
 H        3.714153981    13.320855503     2.003492425
 H        3.272600672    17.511754119     3.544432951
 H        1.089249975    18.080879754     4.521772011
 H       -0.588802712    14.466290500     2.883752249
 H        1.552105842    13.927882141     1.848148236
 H       -1.127503871    17.644470192     4.941282147
 H       -2.339732791    15.013502666     3.767560014
 H       -1.774941519    16.411890031     7.189052851
 H       -1.399022257    17.724507209     9.198515712
 H       -4.973992328    19.997214618     8.436416075
 H       -5.385080996    18.717050418     6.410027383
 H       -3.730282829    20.522596447    10.339557249
 H       -1.170035486    18.859331793    10.853918115
 H       -3.495454546    21.661694045    11.997339832
 H       -3.117120338    22.968997449    14.007971545
 H        0.498503473    20.671144445    14.773976188
 H        0.073222115    19.379213251    12.757761933
 H        3.577779180    19.145190870     0.073367786
 H        2.501470492    18.277674166     1.201668472
 H        3.120174034    16.138698396    -0.354824912
 H        4.517604899    17.108564028    -0.807892713
 H        5.530376772    16.231544173     1.075599012
 H        4.576338400    17.408364970     1.991850126
 H        2.262523352    -1.030355987    -0.034030811
 H        2.275368384     0.484505028     0.903414413
 H        2.261592362     0.537349968    -0.880688827
 H       -1.809318447    25.034214508    17.067089043
 H       -3.108037512    24.177462264    16.199361355
 H       -1.865808250    25.077563757    15.286726529
 H       -1.169017482    22.496685728    18.512635998
 C       -2.785781835    21.328460361    17.650877236
 C       -0.390452382    20.615598228    17.756420363
 H        1.453989668    22.423740255    16.132535088
 C        1.299462398    24.185615583    14.876289790
 C        1.280525502    24.188110740    17.382938461
 H       -5.837231614    17.756162260     4.341424034
 C       -4.146675457    18.768048241     3.422762772
 C       -5.232135918    16.687048833     2.554067344
 H       -5.025687484    14.347256882     4.560462595
 C       -4.109549872    13.972579252     6.497540728
 C       -6.258394090    15.205584567     6.126951140
 H       -6.252115692    11.901863043    -0.715065904
 C       -6.073292690    14.043334380    -1.028734738
 C       -5.048459119    12.275597138    -2.482354566
 H       -4.833080988    13.888824593     2.023568775
 C       -5.966541475    12.058900954     2.296524838
 C       -3.590051830    12.394872666     3.008060919
 H       -1.780808048    -0.903314937    -1.445285106
 C       -0.297316951    -0.172629023    -2.849253142
 C       -0.191197990    -2.366413106    -1.641460731
 H       -0.111460166    -1.936816186     1.513949495
 C       -0.190263078    -0.228610601     2.854874242
 C       -2.133185839    -1.146391228     1.574558387
 H       -3.525591065    22.139124290    17.639712317
 H       -2.968591388    20.758915313    18.573402013
 H       -3.023163607    20.649891932    16.818858297
 H        0.669063781    20.891392148    17.830441982
 H       -0.496192594    19.897526309    16.930995359
 H       -0.627085244    20.060224934    18.675786515
 H        1.093410944    23.653414287    13.936544630
 H        2.383249256    24.368978903    14.893708029
 H        0.820325474    25.171359459    14.809713572
 H        1.074772091    23.654280710    18.319714796
 H        0.793172366    25.170224873    17.443530079
 H        2.362878536    24.382905795    17.372017597
 H       -3.910870290    19.421470660     4.273865960
 H       -4.778913788    19.361886208     2.747844801
 H       -3.207955846    18.581246599     2.880535347
 H       -5.815681636    15.778950046     2.751868737
 H       -4.348316233    16.404039624     1.964076164
 H       -5.851666360    17.308805660     1.891326044
 H       -3.121642823    13.668887601     6.124090343
 H       -4.677796749    13.045794038     6.660575947
 H       -3.963016529    14.418747529     7.491979761
 H       -6.902633055    15.784280788     5.452968063
 H       -6.206639110    15.744268839     7.084032262
 H       -6.794690529    14.268174545     6.334254309
 H       -6.463687269    14.339007502    -0.046291311
 H       -6.923711289    14.088660420    -1.723841382
 H       -5.368462109    14.821350604    -1.356127265
 H       -4.634861007    11.262167983    -2.580703621
 H       -4.315078741    12.976009350    -2.905662794
 H       -5.926216712    12.313435369    -3.143209818
 H       -6.800622218    12.346247008     1.644070880
 H       -6.278706019    12.309033607     3.321306172
 H       -5.878900071    10.964007274     2.264533495
 H       -2.638893684    12.931049091     2.884761088
 H       -3.362052213    11.318889307     3.014308465
 H       -3.953384699    12.628501599     4.019758827
 H       -0.648464990     0.868937706    -2.874856376
 H       -0.769603159    -0.676545019    -3.704540202
 H        0.781478287    -0.162934250    -3.053654140
 H       -0.474985061    -2.972928852    -0.771704601
 H        0.894200082    -2.462965186    -1.776845872
 H       -0.653254537    -2.848204111    -2.515453823
 H        0.895608328    -0.102881863     2.953657070
 H       -0.509844024    -0.827228065     3.719975876
 H       -0.652444082     0.761424470     2.978611357
 H       -2.507658377    -1.709958330     0.710742186
 H       -2.699746360    -0.206557936     1.636502044
 H       -2.411643641    -1.729804836     2.464376339

