187   

Si        0.000000000     0.000000000     0.000000000
 C        1.865055551     0.000000000     0.000000000
 C       -0.681010047     1.710296140     0.000000000
 C        0.106207690     2.800676771     0.383736390
 C       -0.420413676     4.092313220     0.379867479
 C       -1.744741452     4.322646427    -0.001376103
 C       -2.533791286     3.228407894    -0.380649083
 C       -2.011025596     1.938306449    -0.378291189
 C       -2.339628954     5.654759366    -0.021376011
 C       -1.698617261     6.786666186     0.316226577
 C       -2.298949017     8.116628293     0.294278043
 C       -1.516678527     9.216494616     0.671625932
 C       -2.047430540    10.503778792     0.665943666
 C       -3.378738352    10.719751846     0.288467886
 C       -4.161935362     9.624175566    -0.089209163
 C       -3.624518319     8.337516257    -0.089495418
Si       -4.087815141    12.416174936     0.278059217
 C       -5.913978154    12.322514144     0.294804684
 C       -6.740606437    12.970658378    -0.535548408
 C       -8.200904904    12.865208961    -0.485083205
 C       -8.961798727    13.595297100    -1.411382474
 C      -10.345196599    13.530172122    -1.405767973
 C      -11.013609100    12.751504790    -0.439298698
 C      -10.257309434    12.017108177     0.485645541
 C       -8.867680442    12.062057078     0.442933526
 N      -12.430388776    12.729162489    -0.490757701
 C      -13.087356731    14.034631557    -0.280437267
 C      -13.083972312    11.617080362     0.215508981
 C      -13.358869680    14.436097606     1.179956490
 C      -12.094927143    14.731298426     2.008887842
 N      -11.434309366    16.018144693     1.732449748
 C      -12.239565834    17.165618735     1.691766047
 C      -13.294357653    17.303076446     2.621736664
 C      -14.103262968    18.426721538     2.601769762
 C      -13.871447392    19.472652280     1.696287007
 C      -12.808805896    19.347639341     0.797407502
 C      -11.996765298    18.221016050     0.792065911
 C      -10.319930636    15.939393333     0.779232184
 C      -14.757341487    20.637742157     1.718049982
 C      -14.630281665    21.691855611     0.901460569
Si      -15.703190141    23.170426132     0.882836939
 C      -14.667385491    24.689935842     0.929637194
 C      -13.374035538    24.643155990     1.464663518
 C      -12.585779080    25.790701984     1.502439707
 C      -13.073271991    27.011847651     1.018701662
 C      -14.367329203    27.055830037     0.491830284
 C      -15.157795780    25.908303344     0.448103258
 C      -12.209531295    28.186495424     1.079834812
 C      -12.552675124    29.411651361     0.647298995
 C      -11.689612995    30.586703596     0.708063835
 C      -10.395831520    30.546013827     1.234030674
 C       -9.605000390    31.694457572     1.272400141
 C      -10.090181162    32.909009617     0.777676685
 C      -11.387250299    32.952174869     0.248386395
 C      -12.176132298    31.805778968     0.216830108
Si       -9.059908989    34.434028638     0.820577801
 C       -7.281392884    34.049617222     1.231748148
 C       -9.175047297    35.276991224    -0.882296336
 C       -9.745574374    35.627304433     2.135732717
 C      -16.731797772    23.148405762    -0.718393512
 C      -16.890309785    23.185521894     2.368304769
 C       -3.524269574    13.350904001     1.836602195
 C       -3.459693616    13.347875248    -1.255671536
 C       -0.650333672    -0.911445213    -1.540018863
 C       -0.621194977    -0.917793827     1.547444803
 H        1.149056632     2.682939715     0.690909974
 H        0.214205686     4.924439411     0.679213049
 H       -3.568115952     3.385725741    -0.680797878
 H       -2.674766912     1.124473236    -0.683496460
 H       -3.385511343     5.682707572    -0.341835273
 H       -0.653162616     6.760803581     0.636592135
 H       -0.481722384     9.065814199     0.972490648
 H       -1.389913449    11.323520025     0.968218666
 H       -5.206755593     9.735329103    -0.397151140
 H       -4.252425145     7.501124235    -0.391306429
 H       -6.306713411    11.665650074     1.089518330
 H       -6.382747572    13.636715314    -1.331422675
 H       -8.458583875    14.210799636    -2.157761827
 H      -10.923813566    14.066139072    -2.155835463
 H      -10.745731999    11.402806193     1.236114685
 H       -8.297741801    11.470223167     1.160995999
 H      -14.158840220    11.617305978    -0.037286965
 H      -12.983199851    11.648278646     1.311515836
 H      -12.664541890    10.662352453    -0.149951071
 H       -9.730917722    15.021132316     0.961393799
 H       -9.638128006    16.793372342     0.946448872
 H      -10.636141691    15.933171060    -0.276519017
 H      -13.471878175    16.525828818     3.359112161
 H      -14.924447198    18.503784520     3.314936799
 H      -12.606082015    20.146972637     0.082457516
 H      -11.185988692    18.161905629     0.073279449
 H      -15.544830916    20.567328314     2.479656245
 H      -13.830997859    21.728105685     0.142238168
 H      -12.943602982    23.717147632     1.860490608
 H      -11.580626449    25.735388706     1.916295817
 H      -14.769675731    27.991959805     0.109668892
 H      -16.160987346    26.003526369     0.023975588
 H      -11.222949200    28.006659649     1.517114690
 H      -13.539248336    29.591501230     0.210368239
 H       -9.992961007    29.611979474     1.621474305
 H       -8.601823744    31.600683940     1.697401656
 H      -11.818887120    33.873153280    -0.153625312
 H      -13.181449402    31.859359961    -0.196541087
 H      -12.489280917    14.829427919    -0.779574245
 H      -14.058079242    13.989096431    -0.831188672
 H      -14.019872481    15.328848542     1.177774399
 H      -13.944736953    13.647098131     1.687415720
 H      -12.358948166    14.726242317     3.094320198
 H      -11.353060206    13.910678256     1.877040133
 H        2.262788877    -1.029668527    -0.044024686
 H        2.276051214     0.476543752     0.907104542
 H        2.259914870     0.546312052    -0.876011405
 H       -6.662578371    34.964581121     1.216582727
 H       -6.848834843    33.344693141     0.498721803
 H       -7.181727842    33.597498232     2.234085737
 H      -10.267322922    35.518242124    -1.034395789
 C       -8.384798695    36.594731091    -0.970056542
 C       -8.734115091    34.349908575    -2.029411234
 H       -9.033686932    36.502627437     2.152959930
 C      -11.151502884    36.163551814     1.812168691
 C       -9.768397009    35.002584636     3.542880053
 H      -17.395332752    24.059939017    -0.675401201
 C      -15.858976267    23.255282578    -1.981598008
 C      -17.634873991    21.907962674    -0.835712778
 H      -17.427902993    22.193660091     2.345903154
 C      -16.147671406    23.299680757     3.712258599
 C      -17.947525721    24.301606568     2.291979621
 H       -2.400030098    13.419967970     1.768582553
 C       -4.086531266    14.781012526     1.915373162
 C       -3.876277988    12.600133064     3.133090157
 H       -4.004929699    14.335899572    -1.263231891
 C       -1.948975759    13.639522843    -1.217713611
 C       -3.786835587    12.607767386    -2.565509374
 H       -1.774879247    -0.922474177    -1.442190237
 C       -0.298639096    -0.181857419    -2.849127493
 C       -0.173111675    -2.371546113    -1.636031115
 H       -0.140666473    -1.937993999     1.512263709
 C       -0.188237210    -0.230928636     2.855636817
 C       -2.148146260    -1.110247115     1.573008437
 H       -8.696340500    37.338857456    -0.225659102
 H       -8.540659148    37.060697966    -1.953982930
 H       -7.300946541    36.451929057    -0.867105247
 H       -9.296444132    33.405756373    -2.064596382
 H       -7.666216866    34.097308056    -1.991098133
 H       -8.900983186    34.842442302    -2.997952042
 H      -11.205544766    36.696205397     0.854352579
 H      -11.464079993    36.884731169     2.581520121
 H      -11.917166791    35.375066256     1.804416701
 H       -8.781892805    34.667228390     3.887927294
 H      -10.455670547    34.147647150     3.619372779
 H      -10.115534990    35.742653388     4.278162901
 H      -15.209657027    24.142196528    -1.988954354
 H      -16.495674258    23.334039579    -2.874128976
 H      -15.220107479    22.374857865    -2.135638275
 H      -18.353181973    21.813163367    -0.011275983
 H      -17.066425834    20.968496537    -0.891206453
 H      -18.230595328    21.961669509    -1.758010424
 H      -15.398304394    22.511713915     3.869083635
 H      -16.859918193    23.219260106     4.545289244
 H      -15.637577270    24.266118713     3.835656694
 H      -18.593196056    24.230634727     1.407580868
 H      -17.508316476    25.309179587     2.308414715
 H      -18.615751520    24.246233409     3.163636377
 H       -3.802929668    15.408262539     1.060467198
 H       -3.698964085    15.288815132     2.810388516
 H       -5.182662231    14.806712355     1.998387341
 H       -3.473309829    11.577985987     3.168022587
 H       -4.958383813    12.537023959     3.311598817
 H       -3.451455483    13.126355217     3.999997936
 H       -1.644620941    14.253765222    -0.360728458
 H       -1.652480671    14.200339180    -2.116284610
 H       -1.336521571    12.726759083    -1.213372492
 H       -4.856448499    12.394463839    -2.696116401
 H       -3.249095506    11.653023352    -2.660433423
 H       -3.485535852    13.217110390    -3.429211710
 H       -0.657657124     0.856957324    -2.877142503
 H       -0.767238714    -0.691702615    -3.702902806
 H        0.779990603    -0.164060309    -3.054252744
 H       -0.451762632    -2.978466908    -0.764934600
 H        0.913026046    -2.459326628    -1.771439634
 H       -0.631261404    -2.859113572    -2.508888550
 H        0.899865648    -0.126846477     2.954698885
 H       -0.519636430    -0.824268864     3.719943954
 H       -0.631409114     0.767585217     2.980446831
 H       -2.529892387    -1.679505933     0.716076897
 H       -2.697791047    -0.159336344     1.618296562
 H       -2.440472950    -1.675166271     2.470199830

