187   

Si        0.000000000     0.000000000     0.000000000
 C        1.866212693     0.000000000     0.000000000
 C       -0.675609005     1.711019983     0.000000000
 C        0.128615567     2.795659486    -0.361816318
 C       -0.387739126     4.090161460    -0.360286585
 C       -1.711700604     4.334115746     0.011985521
 C       -2.516967252     3.246170103     0.373071936
 C       -2.008490175     1.949817009     0.361092566
 C       -2.279822056     5.677649863     0.023340517
 C       -1.601996779     6.787453563    -0.315143139
 C       -2.154108458     8.136745148    -0.309332757
 C       -1.323968020     9.197909072    -0.688180100
 C       -1.795320865    10.507463873    -0.702100261
 C       -3.108336669    10.787721165    -0.309750340
 C       -3.940388385     9.729400557     0.076929575
 C       -3.469259619     8.417747358     0.071425572
Si       -3.778704231    12.501464974    -0.310507446
 C       -4.739988629    12.764941512     1.226262398
 C       -4.433246225    12.125266083     2.363275998
 C       -5.148702445    12.279597622     3.629386027
 C       -4.707659189    11.539477721     4.738086563
 C       -5.343142442    11.642322822     5.962949853
 C       -6.426124479    12.531891157     6.128130118
 C       -6.867716292    13.275417566     5.021856483
 C       -6.242464786    13.131485859     3.787216817
 N       -7.044395323    12.603885680     7.395341356
 C       -6.133015068    12.716976411     8.552350450
 C       -8.243372948    13.449659405     7.502157768
 C       -4.948948868    13.683757130     8.377906959
 C       -5.413325838    15.107084331     8.026357872
 N       -4.322657776    16.089060022     7.980168982
 C       -3.394265722    16.024708599     6.928029130
 C       -3.660817593    15.306419458     5.744095814
 C       -2.724604003    15.260611292     4.721586080
 C       -1.510563923    15.955072831     4.817188754
 C       -1.260569012    16.689399800     5.980586262
 C       -2.180579235    16.736712178     7.017532682
 C       -3.795404733    16.431434621     9.312300575
 C       -0.544767105    15.884657005     3.718696183
 C        0.636311146    16.517476237     3.731019884
Si        1.898203732    16.487789844     2.413260773
 C        1.932694969    14.935186195     1.425312402
 C        1.972584642    13.689947941     2.064659996
 C        1.998887627    12.509220323     1.321892034
 C        2.005521746    12.545644270    -0.075106491
 C        1.972535079    13.792437044    -0.713603042
 C        1.933940559    14.971442302     0.025317717
 C        2.032595864    11.349136167    -0.907820529
 C        2.065486118    10.081545487    -0.462666846
 C        2.091712565     8.913493581    -1.339858684
 C        2.084395024     9.030335982    -2.732871432
 C        2.109925503     7.898510860    -3.545811049
 C        2.159419250     6.618329153    -2.984017431
 C        2.173022893     6.498626446    -1.588146956
 C        2.137980793     7.630974177    -0.777583337
Si        2.192725314     5.130308425    -4.071411657
 C        2.400976012     5.606731049    -5.863695631
 C        3.631095454     3.971208989    -3.609213943
 C        0.545274904     4.212355537    -3.814832190
 C        1.553912930    17.979640945     1.276367219
 C        3.605545651    16.732034008     3.219278688
 C       -2.347022126    13.752463118    -0.325741252
 C       -4.875091298    12.783871601    -1.831958776
 C       -0.605554562    -0.894850018    -1.567449179
 C       -0.663743889    -0.923064316     1.524662093
 H        1.177517473     2.670339838    -0.646348391
 H        0.255912642     4.922714304    -0.644931918
 H       -3.552083363     3.412310486     0.664175873
 H       -2.684940983     1.140156511     0.647486162
 H       -3.326012741     5.733692744     0.333585826
 H       -0.552654106     6.727901516    -0.629493115
 H       -0.296251247     8.997511331    -0.991518054
 H       -1.100292508    11.289488826    -1.022852033
 H       -4.975235145     9.892139486     0.395199892
 H       -4.135646562     7.611776458     0.370937070
 H       -5.566686799    13.484007489     1.166649070
 H       -3.600152636    11.407632318     2.430959149
 H       -3.856979185    10.864227823     4.632148727
 H       -5.010374080    11.033555733     6.799288284
 H       -7.696643267    13.969477678     5.111703814
 H       -6.607918541    13.710975883     2.938626981
 H       -8.706451935    13.303362859     8.493043370
 H       -8.987041599    13.117167823     6.754411193
 H       -8.056040048    14.525380580     7.359918934
 H       -4.577374840    16.317261901    10.080028198
 H       -3.494514832    17.495524230     9.317154196
 H       -2.929577269    15.815637576     9.606608743
 H       -4.594932409    14.760421224     5.622716283
 H       -2.947911380    14.675699510     3.825730546
 H       -0.326539465    17.243628171     6.083613249
 H       -1.949722061    17.328709085     7.896425983
 H       -0.874290676    15.251269731     2.884035199
 H        0.925256024    17.151684946     4.585778521
 H        1.967215662    13.601022355     3.156086469
 H        2.015678364    11.552931731     1.841666870
 H        1.974713452    13.844378017    -1.800655894
 H        1.909408578    15.911138933    -0.533429162
 H        2.025079711    11.553161237    -1.984393705
 H        2.074358405     9.860750172     0.607628285
 H        2.053065950    10.013352423    -3.199834048
 H        2.093290509     8.058753582    -4.627482110
 H        2.227060947     5.523709560    -1.094120707
 H        2.149524852     7.515797745     0.305180831
 H       -6.723186403    12.999158443     9.451330385
 H       -5.740967194    11.690758112     8.755711307
 H       -4.346532898    13.695093746     9.304713255
 H       -4.262202536    13.314831936     7.587433565
 H       -5.931027829    15.112220855     7.037243818
 H       -6.166599226    15.463366914     8.765083440
 H        2.261295392    -1.030616414     0.042289154
 H        2.262021457     0.542497818     0.877737076
 H        2.278482656     0.477270877    -0.906349452
 H        2.434508204     4.713257281    -6.512129592
 H        3.335367497     6.171330795    -6.027626361
 H        1.560435491     6.232930747    -6.212751994
 H        3.747736842     3.280081893    -4.494569132
 C        4.954768681     4.736563049    -3.426394712
 C        3.390525955     3.095499270    -2.366893126
 H        0.570263776     3.822315014    -2.754031226
 C       -0.679665987     5.134695157    -3.941883012
 C        0.365309382     3.006237968    -4.752758842
 H        2.320959980    17.930645881     0.451315438
 C        0.152729429    17.917810332     0.640905220
 C        1.712449948    19.335037177     1.988636336
 H        3.549365058    17.716659345     3.767619774
 C        3.941431057    15.635957980     4.246085079
 C        4.747738137    16.821370059     2.192254008
 H       -1.774142860    13.564490280    -1.279006826
 C       -2.810958179    15.219651754    -0.329093252
 C       -1.394241933    13.537406327     0.861394493
 H       -5.233543151    13.851750465    -1.766849698
 C       -4.112468136    12.616226966    -3.158593099
 C       -6.111830874    11.867177747    -1.847846177
 H       -0.152812977    -1.927109441    -1.526407307
 C       -2.135772255    -1.046607743    -1.630972782
 C       -0.122787153    -0.211596233    -2.860088511
 H       -1.787588493    -0.931177398     1.417310517
 C       -0.189935559    -2.384771837     1.612555894
 C       -0.322210144    -0.204813728     2.842870104
 H        5.245729958     5.324571995    -4.306745488
 H        5.778273242     4.031503354    -3.244858196
 H        4.937839102     5.420018989    -2.565344722
 H        2.505472663     2.451353539    -2.460648327
 H        3.296132812     3.679172074    -1.441778008
 H        4.245074077     2.420211695    -2.214237301
 H       -0.652187856     5.994281784    -3.256281568
 H       -1.595009461     4.579145194    -3.687628364
 H       -0.825099142     5.524519040    -4.956860363
 H        1.159663071     2.255528708    -4.654143979
 H        0.301206802     3.290332806    -5.811113275
 H       -0.578428294     2.490640821    -4.517732368
 H       -0.030236803    16.999499608     0.066699402
 H        0.018935788    18.752845094    -0.060662183
 H       -0.654051967    18.006350036     1.384258189
 H        2.717435460    19.497693086     2.398033338
 H        0.989780364    19.476250821     2.804564870
 H        1.536109064    20.155285340     1.277938958
 H        3.181829204    15.525495797     5.032057691
 H        4.883177416    15.877218502     4.759303724
 H        4.089797133    14.649986490     3.783434811
 H        4.625864402    17.642759528     1.474588779
 H        4.879798925    15.893831966     1.616961431
 H        5.703099744    17.001423083     2.705963614
 H       -3.431815110    15.478741755    -1.194926592
 H       -1.937165270    15.887386687    -0.365754400
 H       -3.367132750    15.494464162     0.578438646
 H       -0.963104667    12.527237552     0.910737514
 H       -1.867038542    13.738611323     1.833163271
 H       -0.533178752    14.218329545     0.775741421
 H       -3.263360472    13.303959605    -3.262883897
 H       -4.781180249    12.822873862    -4.006285189
 H       -3.734778751    11.594385850    -3.308638613
 H       -6.741907125    11.969182161    -0.954085057
 H       -5.852974229    10.803724525    -1.953639626
 H       -6.752418771    12.113029343    -2.706491851
 H       -2.553103434    -1.610204391    -0.787033299
 H       -2.421628401    -1.598830781    -2.537958393
 H       -2.659152151    -0.081104251    -1.682797287
 H        0.970172734    -0.146448056    -2.936756037
 H       -0.527896365     0.804170890    -2.981214993
 H       -0.458411836    -0.784272595    -3.736357731
 H       -0.460481322    -2.983321220     0.733171973
 H       -0.658181861    -2.879456768     2.476097433
 H        0.894559870    -2.475572796     1.758476640
 H       -0.681561038     0.833740468     2.876740339
 H        0.754668610    -0.189005750     3.056769765
 H       -0.797940833    -0.721944888     3.688382647

