187   

Si        0.000000000     0.000000000     0.000000000
 C        1.865948315     0.000000000     0.000000000
 C       -0.645447336     1.726337355     0.000000000
 C       -0.100274154     2.674774794     0.874108179
 C       -0.576661317     3.985269160     0.887304411
 C       -1.596938486     4.381101019     0.018588897
 C       -2.147592846     3.429797783    -0.849573398
 C       -1.688875062     2.115397548    -0.848534883
 C       -2.134086321     5.736048982    -0.012180774
 C       -1.730624971     6.753640044     0.768188102
 C       -2.298502409     8.096500368     0.702320696
 C       -1.812988118     9.093625573     1.556783084
 C       -2.335573506    10.386238295     1.517322276
 C       -3.361110482    10.708328798     0.623746272
 C       -3.848589797     9.710435990    -0.230709784
 C       -3.322852941     8.422767301    -0.191705829
Si       -4.114020449    12.386998329     0.499212835
 C       -4.309841355    12.735885468    -1.288943671
 C       -3.460044546    12.206713565    -2.179646524
 C       -3.510221775    12.408548726    -3.625427578
 C       -2.530058141    11.769990184    -4.405019173
 C       -2.512277692    11.913187922    -5.778683278
 C       -3.535212882    12.636792676    -6.429151506
 C       -4.521918503    13.264644571    -5.654907796
 C       -4.485877349    13.170756669    -4.264928865
 N       -3.463571716    12.749864956    -7.839467023
 C       -3.304717072    11.474949816    -8.565403619
 C       -4.430609159    13.659069234    -8.474082288
 C       -4.578970503    10.623321251    -8.738397581
 C       -5.151085900    10.064851577    -7.425132978
 N       -4.210937977     9.208652566    -6.655412880
 C       -4.754424392     8.769225894    -5.417008262
 C       -5.331844222     9.722798512    -4.553418801
 C       -5.872885237     9.339676934    -3.337879386
 C       -5.807391080     8.006384471    -2.904258578
 C       -5.202778454     7.069116044    -3.743765738
 C       -4.676753613     7.437353458    -4.978235926
 C       -3.569156361     8.161560596    -7.468009067
 C       -6.394699819     7.650363096    -1.609970068
 C       -6.390335692     6.412685200    -1.097480378
Si       -7.106998211     5.911835317     0.509830226
 C       -5.905439831     4.938218240     1.503850885
 C       -4.676682932     5.517674867     1.843963724
 C       -3.745167289     4.807469049     2.595432978
 C       -4.017777048     3.505061431     3.031320561
 C       -5.246252784     2.930549680     2.696742280
 C       -6.181688516     3.640163094     1.943927048
 C       -3.005573350     2.807704088     3.815589489
 C       -3.134880242     1.559808832     4.296218666
 C       -2.117577620     0.868438174     5.080311452
 C       -0.892437167     1.455994633     5.407636805
 C        0.053351135     0.759702782     6.159861241
 C       -0.200012165    -0.547459495     6.586961713
 C       -1.426423846    -1.140142255     6.257040349
 C       -2.373953600    -0.438246180     5.517299096
Si        1.037210218    -1.479874344     7.580052656
 C        2.692147731    -0.618715471     7.593109620
 C        0.420721456    -1.650854787     9.372131338
 C        1.208237071    -3.219262949     6.824416781
 C       -7.648218631     7.424345715     1.532327792
 C       -8.655750722     4.874971890     0.112566969
 C       -5.825156815    12.410063306     1.325248708
 C       -3.012489124    13.697067375     1.320043755
 C       -0.657566193    -0.948705721    -1.514062710
 C       -0.630378037    -0.889434840     1.560775827
 H        0.705479283     2.424295096     1.569989100
 H       -0.140591872     4.703007874     1.578710295
 H       -2.954646945     3.714689913    -1.522547644
 H       -2.173084109     1.413991220    -1.533045022
 H       -2.935152522     5.886454269    -0.746338105
 H       -0.932206274     6.620411939     1.500352060
 H       -1.016974372     8.861826385     2.260407048
 H       -1.918082278    11.122376237     2.207729799
 H       -4.643862942     9.902231826    -0.962396486
 H       -3.721114486     7.672136998    -0.877460452
 H       -5.127700007    13.403236811    -1.581996977
 H       -2.632107980    11.540778092    -1.881279843
 H       -1.764593234    11.161685234    -3.920037017
 H       -1.722983064    11.444134671    -6.362275122
 H       -5.317892810    13.833273105    -6.122438645
 H       -5.246491713    13.685499554    -3.678677180
 H       -4.202168514    13.738062704    -9.550436205
 H       -4.309174670    14.669635467    -8.043305963
 H       -5.482161197    13.351644145    -8.362504782
 H       -3.030394240     8.626747043    -8.309980388
 H       -4.270194474     7.414318254    -7.870583511
 H       -2.802544765     7.647529266    -6.859326367
 H       -5.342851084    10.775439333    -4.837748952
 H       -6.335736576    10.096018963    -2.702003121
 H       -5.134625655     6.025161762    -3.435109715
 H       -4.225072033     6.670953015    -5.599440853
 H       -6.840012105     8.507493468    -1.087719234
 H       -5.937539625     5.571520734    -1.648400445
 H       -4.397767118     6.529361066     1.522629628
 H       -2.791316014     5.273024278     2.840529835
 H       -5.483167554     1.919728264     3.021500537
 H       -7.126505066     3.138733552     1.720337422
 H       -2.090117780     3.381300614     3.991830484
 H       -4.046888074     0.984486129     4.116658053
 H       -0.668051940     2.469683198     5.079856860
 H        0.990336688     1.273621050     6.391368909
 H       -1.679216903    -2.158714376     6.564479326
 H       -3.323036196    -0.912455606     5.275763351
 H       -2.890117203    11.723797724    -9.569681203
 H       -2.526481914    10.864718845    -8.048696636
 H       -5.368476712    11.227424000    -9.227720944
 H       -4.364336216     9.799375256    -9.445142798
 H       -5.426550676    10.928303218    -6.771020466
 H       -6.093275168     9.514338506    -7.648116229
 H        2.264677638    -1.029142362     0.027566091
 H        2.272897463     0.541910467     0.871683040
 H        2.260244637     0.487851497    -0.909563048
 H        3.443574190    -1.209532864     8.146645009
 H        2.632636367     0.374506523     8.071485567
 H        3.073256649    -0.476819874     6.565526522
 H        1.252547351    -2.168349540     9.932059139
 C        0.170515347    -0.286941887    10.041513005
 C       -0.850377451    -2.507678857     9.510788688
 H        0.179094230    -3.680309379     6.875836203
 C        1.633900550    -3.183163205     5.345387162
 C        2.173219254    -4.132695909     7.600958316
 H       -8.268179714     8.059105078     0.835315653
 C       -8.523397358     7.050813743     2.742984462
 C       -6.467777346     8.273769145     2.032637478
 H       -9.013625052     4.459946890     1.098337292
 C       -9.799538275     5.707375053    -0.495169207
 C       -8.358158926     3.693013663    -0.828766870
 H       -6.157717334    13.488523193     1.312313484
 C       -6.872882148    11.586791458     0.554057360
 C       -5.787531593    11.941580441     2.790220912
 H       -2.890904457    13.373371264     2.394203338
 C       -1.614206000    13.772322051     0.679746852
 C       -3.633096999    15.105997765     1.317896499
 H       -1.782223998    -0.863072427    -1.468752758
 C       -0.185006890    -0.342581456    -2.848880888
 C       -0.303962705    -2.447709136    -1.504537070
 H       -0.438816912    -1.988261319     1.394210040
 C        0.124643742    -0.465917339     2.830974370
 C       -2.139688730    -0.694198053     1.788978293
 H        1.058590101     0.357647805    10.064264983
 H       -0.131489270    -0.430716759    11.088845173
 H       -0.640501477     0.281037428     9.563090228
 H       -0.735302975    -3.526305604     9.119506579
 H       -1.724760904    -2.054547148     9.022654306
 H       -1.115635718    -2.615890004    10.572659794
 H        0.955387098    -2.592826109     4.712117458
 H        1.634050538    -4.200264414     4.928356345
 H        2.648577352    -2.789597186     5.200386266
 H        1.892344564    -4.267681212     8.653452043
 H        3.212323535    -3.778779683     7.575053492
 H        2.180257419    -5.137573017     7.154243561
 H       -9.446378453     6.523821706     2.471596492
 H       -8.834430224     7.960597536     3.276360964
 H       -7.991744944     6.431439675     3.479516454
 H       -5.758051875     8.563611828     1.242472597
 H       -5.889016415     7.774413237     2.823004398
 H       -6.838756834     9.209984226     2.474983712
 H      -10.141765297     6.520713130     0.157585788
 H      -10.675971169     5.068496347    -0.673926034
 H       -9.537656205     6.148677784    -1.467244856
 H       -7.543375113     3.043092963    -0.482069357
 H       -8.109247188     4.017804799    -1.848816891
 H       -9.246072999     3.051516304    -0.918382684
 H       -7.012540392    11.925553792    -0.481342419
 H       -7.853692502    11.673876375     1.042002330
 H       -6.637931896    10.512562926     0.525115837
 H       -5.144284335    12.561887114     3.427871399
 H       -5.453863281    10.899042483     2.899685013
 H       -6.793635480    11.992641825     3.230118429
 H       -1.076610202    12.814174750     0.684853615
 H       -0.983156800    14.482737594     1.231780567
 H       -1.641489724    14.127233243    -0.361104625
 H       -4.594444110    15.160049287     1.844015608
 H       -3.780951107    15.506352893     0.305312443
 H       -2.963997908    15.811668781     1.831560890
 H       -0.410754850     0.727772266    -2.951081848
 H       -0.684882358    -0.844478652    -3.689126323
 H        0.893956381    -0.466615480    -3.012757671
 H       -0.702883962    -2.982077028    -0.632620859
 H        0.777114081    -2.634178039    -1.545605182
 H       -0.734774223    -2.940431320    -2.387965574
 H        1.195665087    -0.697981946     2.801845446
 H       -0.285012770    -0.995699534     3.706665071
 H        0.014122778     0.603566856     3.062531728
 H       -2.758999537    -1.035988584     0.951482130
 H       -2.404886406     0.355311528     1.994336691
 H       -2.462470740    -1.264985089     2.671853140

