187   

Si        0.000000000     0.000000000     0.000000000
 C        1.865137658     0.000000000     0.000000000
 C       -0.673392500     1.713402486     0.000000000
 C        0.131815214     2.800624549     0.354843990
 C       -0.385043672     4.095634745     0.352569324
 C       -1.714294643     4.333026718    -0.006636273
 C       -2.520751484     3.242921981    -0.358919312
 C       -2.009309235     1.948221380    -0.351714766
 C       -2.296202070     5.670840463    -0.022926364
 C       -1.632999101     6.794783245     0.298222086
 C       -2.216697287     8.131379733     0.281272480
 C       -1.413979286     9.222090733     0.639172315
 C       -1.929331729    10.516223756     0.637235265
 C       -3.269408248    10.741067394     0.305778007
 C       -4.077507365     9.651395718    -0.040742749
 C       -3.554200631     8.360518664    -0.055295862
Si       -4.003551155    12.425158148     0.286443412
 C       -5.746308740    12.295447996     0.824336885
 C       -6.786535056    12.827666374     0.170988701
 C       -8.179873768    12.718589288     0.609624452
 C       -9.171908256    13.326689275    -0.174149085
 C      -10.507129186    13.256466080     0.191361166
 C      -10.875197169    12.575938293     1.363460556
 C       -9.891695974    11.974291457     2.155689921
 C       -8.554221499    12.052615999     1.779349699
 N      -12.278975893    12.556648708     1.659364171
 C      -12.976371804    11.482902474     0.914147154
 C      -12.593199194    12.557370334     3.099453787
 C      -12.663140846    10.055249744     1.401263618
 C      -12.402075695     9.055552923     0.259148469
 N      -11.017666213     8.992454886    -0.239426516
 C       -9.992864654     8.669031868     0.664574968
 C      -10.278409756     8.099526762     1.922911246
 C       -9.251935202     7.787602875     2.800852098
 C       -7.908909005     7.926329735     2.428666523
 C       -7.623962345     8.450834256     1.164220491
 C       -8.639485879     8.825899409     0.296344523
 C      -10.696531648    10.014987924    -1.249484507
 C       -6.876212264     7.579279846     3.404362320
 C       -5.556685984     7.661657026     3.188656735
Si       -4.314178932     7.211161809     4.454183361
 C       -4.921439184     5.896057151     5.588663635
 C       -5.796766274     4.912377553     5.109006140
 C       -6.264655193     3.911185306     5.955087554
 C       -5.858223051     3.857011808     7.295141617
 C       -4.977602248     4.833502421     7.768212897
 C       -4.512087839     5.841911283     6.924647354
 C       -6.376748354     2.787922644     8.141925596
 C       -6.074164190     2.624402906     9.441041698
 C       -6.593606497     1.554660985    10.286503878
 C       -7.474066313     0.578859751     9.812355592
 C       -7.946383403    -0.426632405    10.655816920
 C       -7.539936465    -0.482925448    11.992601107
 C       -6.655349518     0.493610026    12.470470653
 C       -6.191442770     1.499878204    11.627865721
Si       -8.153946150    -1.803148182    13.118390375
 C       -8.997709091    -3.173141015    12.174267425
 C       -6.670902203    -2.494181367    14.091703031
 C       -9.395239348    -1.057321620    14.353892939
 C       -2.775179006     6.509264620     3.582176955
 C       -3.840495018     8.790499170     5.396440038
 C       -3.079954450    13.598902854     1.461452213
 C       -3.872356374    13.112515865    -1.482073820
 C       -0.657980158    -0.912417321    -1.535002261
 C       -0.623339745    -0.903297293     1.555194441
 H        1.180111019     2.677282706     0.640501327
 H        0.261730930     4.924838285     0.633130003
 H       -3.559981076     3.406389741    -0.639067179
 H       -2.686100460     1.136136065    -0.631880866
 H       -3.348474931     5.709243812    -0.321915971
 H       -0.582257060     6.756226621     0.597933864
 H       -0.374048997     9.060883906     0.915239498
 H       -1.254624515    11.331304280     0.910467142
 H       -5.132606430     9.775001740    -0.310401948
 H       -4.199149377     7.526935921    -0.329833030
 H       -5.885802316    11.730261654     1.761730736
 H       -6.675429302    13.398220653    -0.760591967
 H       -8.893367925    13.864255327    -1.079987785
 H      -11.276693555    13.737866973    -0.409712079
 H      -10.161697188    11.440545780     3.063578512
 H       -7.798830205    11.569973857     2.402858416
 H      -13.671827601    12.758834888     3.218375765
 H      -12.047473980    13.384288816     3.586963299
 H      -12.354776155    11.622619801     3.628649527
 H      -11.598389634    10.317133283    -1.803404208
 H       -9.995154018     9.582301761    -1.986442834
 H      -10.238618316    10.922112200    -0.813921088
 H      -11.302246764     7.906195494     2.225121872
 H       -9.501435181     7.395877859     3.788065921
 H       -6.585181152     8.576251897     0.852631128
 H       -8.377935823     9.244226663    -0.670779813
 H       -7.296173702     7.224482363     4.357380552
 H       -5.144740114     8.026668689     2.235372089
 H       -6.140490770     4.900489162     4.068801379
 H       -6.950385207     3.160431315     5.567484231
 H       -4.645733087     4.813619709     8.804282210
 H       -3.826048471     6.578378886     7.351325558
 H       -7.056631346     2.094826749     7.637747613
 H       -5.394022284     3.316968077     9.945260419
 H       -7.801540480     0.597051731     8.774509494
 H       -8.634857117    -1.160355706    10.227766546
 H       -6.302649279     0.499550828    13.505653389
 H       -5.506387207     2.250451131    12.017586986
 H      -14.067169163    11.686882366     0.991402864
 H      -12.716099795    11.598494923    -0.161249191
 H      -11.779237894    10.079453755     2.073079548
 H      -13.493786769     9.684833862     2.028792033
 H      -12.671987115     8.025185332     0.597811187
 H      -13.075738575     9.266501359    -0.601138010
 H        2.262913702    -1.029596678    -0.046610354
 H        2.275763710     0.473475223     0.908899336
 H        2.260533170     0.548267136    -0.874321810
 H       -9.321674601    -3.982820166    12.852226508
 H       -8.315118503    -3.618770053    11.428061345
 H       -9.892358955    -2.810361864    11.638597729
 H       -6.241590580    -1.620381730    14.663198899
 C       -7.057170554    -3.580305814    15.111297289
 C       -5.565929493    -3.041465514    13.169998046
 H       -9.774156203    -1.925383672    14.966995872
 C       -8.768477639    -0.032255391    15.315984485
 C      -10.601658183    -0.403789741    13.655071444
 H       -2.589853959     7.174727805     2.688002940
 C       -1.508466896     6.520958708     4.454859618
 C       -3.013479908     5.075931523     3.076324500
 H       -3.035326464     8.495731456     6.128630512
 C       -3.271785717     9.878516469     4.468200141
 C       -5.019667893     9.379161800     6.192075028
 H       -2.022459229    13.659834584     1.071979405
 C       -3.667649388    15.021572543     1.463817147
 C       -3.024270101    13.079479202     2.908385669
 H       -4.421169853    14.098252844    -1.476537985
 C       -2.420806841    13.379375340    -1.918524104
 C       -4.540164479    12.195681952    -2.523299437
 H       -1.782494358    -0.917210874    -1.435059109
 C       -0.305348652    -0.188898679    -2.847321479
 C       -0.188270225    -2.375210703    -1.626866512
 H       -0.142739497    -1.923551774     1.530878322
 C       -0.193277292    -0.201846509     2.856618686
 C       -2.150429641    -1.094709391     1.581319061
 H       -7.793944315    -3.240392698    15.850556197
 H       -6.170170919    -3.891345235    15.682263561
 H       -7.451991820    -4.489729765    14.639399663
 H       -5.198532917    -2.300142865    12.445788811
 H       -5.878992388    -3.928984451    12.604433588
 H       -4.694036585    -3.346183011    13.766181871
 H       -7.946171280    -0.442738025    15.915501757
 H       -9.524187308     0.319893156    16.033249742
 H       -8.396269753     0.864203558    14.800177738
 H      -11.159260316    -1.094663042    13.009853921
 H      -10.321497577     0.467560212    13.045615379
 H      -11.318140915    -0.037428219    14.404189184
 H       -1.212811095     7.526390761     4.778954765
 H       -0.658864990     6.119418759     3.883231113
 H       -1.599370215     5.890027459     5.349500872
 H       -3.851268449     4.996213025     2.370638299
 H       -3.188078384     4.354224032     3.886264578
 H       -2.125270089     4.715026366     2.534534088
 H       -2.398768146     9.548071489     3.889284694
 H       -2.941653099    10.743241216     5.060225415
 H       -4.017178519    10.255930822     3.751959626
 H       -5.444176418     8.677796908     6.923036465
 H       -5.841797537     9.721120075     5.546344256
 H       -4.688386163    10.256854439     6.763946542
 H       -3.656866050    15.500265307     0.476253686
 H       -3.077114522    15.671953136     2.125036845
 H       -4.700137374    15.058012502     1.840546511
 H       -2.554055217    12.089820694     2.996285451
 H       -4.014631763    13.022377763     3.381895324
 H       -2.425728653    13.760070357     3.530586307
 H       -1.903115001    14.112453778    -1.286666656
 H       -2.404271094    13.789881522    -2.938791627
 H       -1.806922039    12.467994548    -1.947238704
 H       -5.596574947    11.982629012    -2.309950315
 H       -4.024463222    11.230425199    -2.632114123
 H       -4.514309781    12.669681538    -3.514523624
 H       -0.660175645     0.851173086    -2.878384377
 H       -0.777603503    -0.699786726    -3.698474169
 H        0.772954650    -0.176466628    -3.054384245
 H       -0.470032998    -2.977891137    -0.753717269
 H        0.897352859    -2.469137760    -1.762078350
 H       -0.649107711    -2.863114846    -2.498085742
 H        0.894289044    -0.095731860     2.957152124
 H       -0.525940939    -0.786336547     3.726738132
 H       -0.638415296     0.797528671     2.970585330
 H       -2.533171227    -1.667682745     0.727614987
 H       -2.699353148    -0.142930883     1.623522999
 H       -2.442751470    -1.655229544     2.481511759

