187   

Si        0.000000000     0.000000000     0.000000000
 C        1.865233958     0.000000000     0.000000000
 C       -0.677147967     1.711647790     0.000000000
 C        0.132786580     2.808648708     0.310319762
 C       -0.391344819     4.101189556     0.307129786
 C       -1.734947795     4.326832054    -0.003087550
 C       -2.545987609     3.226213443    -0.310896281
 C       -2.025981609     1.934879418    -0.308188165
 C       -2.326430357     5.660600598    -0.018901463
 C       -1.661801567     6.795704390     0.256503137
 C       -2.253662207     8.129440907     0.240592588
 C       -1.442137999     9.229703408     0.548918090
 C       -1.962213510    10.521181173     0.546627196
 C       -3.311508126    10.741585703     0.242096975
 C       -4.123754155     9.645557177    -0.066118695
 C       -3.597522437     8.354126772    -0.069883609
Si       -4.002997506    12.446318057     0.237867346
 C       -5.825737683    12.378835551     0.340322436
 C       -6.681258552    13.026348532    -0.461720086
 C       -8.137857832    12.944600335    -0.345022084
 C       -8.932217695    13.669993427    -1.245149912
 C      -10.314518894    13.627321788    -1.178096855
 C      -10.958195838    12.878702573    -0.167017379
 C      -10.161321293    12.148362980     0.736199235
 C       -8.777233175    12.170244353     0.626948698
 N      -12.357208319    12.847962536    -0.115890227
 C      -13.087672957    14.072626907    -0.478077465
 C      -12.985130215    12.049307887     0.943723157
 C      -12.632283266    15.355052510     0.243133708
 C      -13.117646805    15.477723741     1.698293274
 N      -14.568707465    15.672574822     1.892826731
 C      -15.336062443    14.479761116     1.912663494
 C      -15.068076892    13.558848249     2.945949128
 C      -15.780582413    12.374002403     3.024481659
 C      -16.802166973    12.084519957     2.106415671
 C      -17.083989294    13.014431337     1.103462532
 C      -16.372231784    14.205917285     1.008236524
 C      -15.124187948    16.783718906     1.105356686
 C      -17.523544617    10.816637721     2.235861945
 C      -18.515065583    10.429286056     1.422616014
Si      -19.415823692     8.845460620     1.584738563
 C      -19.496053334     8.272496466     3.330309877
 C      -19.558214771     9.209324064     4.368472671
 C      -19.619475144     8.791519706     5.696844160
 C      -19.633755632     7.431035035     6.017662979
 C      -19.580922313     6.495338728     4.976450470
 C      -19.515470532     6.909297986     3.648156406
 C      -19.697167708     6.948064995     7.393138181
 C      -19.751573946     7.738016571     8.478945314
 C      -19.815008915     7.256296221     9.854805556
 C      -19.825303474     5.897183197    10.178409045
 C      -19.886804053     5.481028627    11.508329148
 C      -19.932301023     6.417868592    12.545543846
 C      -19.921180679     7.781961010    12.223518370
 C      -19.865835397     8.194093359    10.895053973
Si      -20.013675037     5.885539619    14.306002002
 C      -19.652207853     4.064874303    14.490479536
 C      -18.752228050     6.910754916    15.296470673
 C      -21.753485526     6.235402095    14.994578535
 C      -21.187602411     9.094074511     0.939924844
 C      -18.546201006     7.543355272     0.504594060
 C       -3.344851089    13.393176765     1.752296721
 C       -3.435557494    13.344599473    -1.339491293
 C       -0.654229478    -0.903664146    -1.542878978
 C       -0.617064815    -0.921859616     1.546788831
 H        1.191389736     2.695331101     0.559890455
 H        0.260940941     4.938071510     0.549966661
 H       -3.595579228     3.379533560    -0.554996986
 H       -2.707160124     1.116066992    -0.556284029
 H       -3.388776396     5.687008897    -0.279048159
 H       -0.599601793     6.769993622     0.516580690
 H       -0.392854720     9.075958052     0.792742595
 H       -1.281664600    11.340763799     0.792999078
 H       -5.184022860     9.760718470    -0.314929656
 H       -4.248446210     7.517290698    -0.316405927
 H       -6.191777307    11.740332368     1.161625762
 H       -6.350093653    13.674941431    -1.283483182
 H       -8.455818228    14.270133404    -2.020985302
 H      -10.903597200    14.168411338    -1.912244644
 H      -10.616334776    11.558797763     1.525349182
 H       -8.183320553    11.582697344     1.329312894
 H      -14.084419948    12.054186306     0.820412724
 H      -12.757207290    12.405280997     1.961621518
 H      -12.659426819    10.996985782     0.848269305
 H      -14.523207426    17.690499774     1.294362697
 H      -16.150380935    16.995161136     1.456403120
 H      -15.154034625    16.605258811     0.019281274
 H      -14.305452386    13.792147781     3.686708154
 H      -15.555427362    11.665034651     3.822626531
 H      -17.875909745    12.813159849     0.380988106
 H      -16.618383309    14.908941414     0.218318347
 H      -17.175840503    10.205619744     3.081304296
 H      -18.839326300    11.056248510     0.577976626
 H      -19.556844146    10.288007386     4.178023743
 H      -19.659353158     9.539552750     6.486790070
 H      -19.591744330     5.431223708     5.204532665
 H      -19.476554744     6.133254425     2.879005388
 H      -19.697987924     5.859083887     7.496290667
 H      -19.751589567     8.827225637     8.375438718
 H      -19.786143942     5.147688933     9.390082255
 H      -19.893939756     4.404277557    11.698972410
 H      -19.954239233     8.559364636    12.992223112
 H      -19.860235231     9.257855083    10.664738094
 H      -12.975476415    14.210624985    -1.580808718
 H      -14.176089831    13.904321758    -0.309067984
 H      -11.522809303    15.408672932     0.239778775
 H      -12.964326961    16.233265022    -0.341432741
 H      -12.789984915    14.584644522     2.276085779
 H      -12.616605241    16.353865862     2.176530563
 H        2.263604417    -1.029439100    -0.042692562
 H        2.274825258     0.477380205     0.907433986
 H        2.260857709     0.545360715    -0.876156414
 H      -19.659881181     3.762861725    15.553048116
 H      -18.655968621     3.815333811    14.082286914
 H      -20.397840678     3.444257862    13.963396824
 H      -19.064818979     7.988535551    15.172914865
 C      -18.747947069     6.591161914    16.801926847
 C      -17.320124612     6.770705477    14.749509252
 H      -21.750481098     5.830632054    16.047905607
 C      -22.103217175     7.732751736    15.061068490
 C      -22.856800914     5.506334563    14.206027905
 H      -21.086083704     9.431755372    -0.131713142
 C      -22.022842644     7.802178786     0.957085060
 C      -21.941628333    10.187994552     1.717135860
 H      -19.166150740     6.604169487     0.586310844
 C      -18.475295805     7.937003508    -0.981589853
 C      -17.125430727     7.225867097     1.004558512
 H       -2.224222369    13.437028397     1.628906638
 C       -3.872103857    14.836436662     1.834734349
 C       -3.648903413    12.670356675     3.076573872
 H       -3.972062069    14.337471165    -1.339508344
 C       -1.922168069    13.622359935    -1.377440058
 C       -3.830036704    12.585411505    -2.619671402
 H       -1.778873871    -0.905550777    -1.446246032
 C       -0.295307441    -0.173735811    -2.849790302
 C       -0.187758272    -2.367025628    -1.641141933
 H       -0.125087696    -1.936702673     1.513475817
 C       -0.193802541    -0.228854573     2.855019024
 C       -2.141645364    -1.131614062     1.571136003
 H      -19.724927823     6.738060862    17.280328590
 H      -18.046632439     7.257666519    17.324979329
 H      -18.418569777     5.566914246    17.021455693
 H      -17.233806322     7.037376046    13.686364810
 H      -16.911323362     5.758801113    14.870757831
 H      -16.641759853     7.445410135    15.291033652
 H      -21.405696847     8.316960770    15.674532880
 H      -23.095944720     7.866255626    15.515406885
 H      -22.156461285     8.202535250    14.068829055
 H      -22.728035544     4.416604802    14.180907970
 H      -22.940552978     5.855449419    13.166706961
 H      -23.836101587     5.688930702    14.671327291
 H      -21.596153393     6.998680087     0.343310634
 H      -23.026261881     7.997564858     0.551515323
 H      -22.175734832     7.404175137     1.970637772
 H      -21.433847556    11.161999882     1.704616258
 H      -22.118727012     9.919490423     2.768777507
 H      -22.933293823    10.351604707     1.271894261
 H      -19.459505122     8.111318478    -1.434575257
 H      -18.010705350     7.126822907    -1.562371487
 H      -17.860794717     8.830978580    -1.158083404
 H      -17.096024258     6.880215249     2.047249895
 H      -16.441732667     8.083322499     0.921472019
 H      -16.684106540     6.420064780     0.401172790
 H       -3.618525071    15.443222854     0.955990373
 H       -3.431156927    15.349888732     2.700971662
 H       -4.962156510    14.886062308     1.969740333
 H       -3.264388461    11.641073508     3.108838715
 H       -4.722626900    12.631075950     3.305878648
 H       -3.173856814    13.201470291     3.913561666
 H       -1.572703959    14.247013441    -0.545673967
 H       -1.663484375    14.165728609    -2.297945134
 H       -1.318691272    12.703821402    -1.386648728
 H       -4.906445154    12.377964845    -2.694177181
 H       -3.304281216    11.625122190    -2.723619504
 H       -3.567138753    13.177855272    -3.507050487
 H       -0.647603638     0.867488012    -2.875821874
 H       -0.766121996    -0.678362698    -3.705407791
 H        0.783702676    -0.162773328    -3.053037230
 H       -0.472146673    -2.973495174    -0.771571184
 H        0.897950124    -2.462259062    -1.774998754
 H       -0.648005416    -2.849623522    -2.515597273
 H        0.892836338    -0.111423634     2.955141716
 H       -0.519107254    -0.825243957     3.719468843
 H       -0.648782545     0.764572919     2.978202465
 H       -2.518136996    -1.695428885     0.708346368
 H       -2.701151263    -0.187128311     1.627780401
 H       -2.426848927    -1.709522605     2.462318417

