187   

Si        0.000000000     0.000000000     0.000000000
 C        1.865415832     0.000000000     0.000000000
 C       -0.677479902     1.711551252     0.000000000
 C        0.138057898     2.811002457    -0.285782147
 C       -0.386630473     4.103368035    -0.282781157
 C       -1.737445674     4.325636366    -0.003147473
 C       -2.554353114     3.222427005     0.278829706
 C       -2.032864999     1.931744815     0.280757315
 C       -2.329741179     5.659148352     0.011219831
 C       -1.658944967     6.796865575    -0.236941123
 C       -2.250345600     8.130740844    -0.222803776
 C       -3.601940213     8.352326823     0.057062241
 C       -4.125991670     9.644199304     0.059965387
 C       -3.303407698    10.744619439    -0.203715597
 C       -1.948574640    10.526947042    -0.482690915
 C       -1.431380439     9.234025099    -0.496625967
Si       -3.985138806    12.453176070    -0.202256475
 C       -2.644622504    13.658742069     0.083241191
 C       -2.390283616    14.754320469    -0.644636469
 C       -1.293477436    15.680775054    -0.356970651
 C       -1.106328794    16.802026898    -1.176835222
 C       -0.079201315    17.702257407    -0.936884618
 C        0.777294351    17.533289631     0.171187454
 C        0.589041460    16.405749943     0.994484530
 C       -0.415788831    15.490694179     0.714278601
 N        1.824519261    18.437137668     0.429652515
 C        1.737069340    19.780362324    -0.162991846
 C        2.364533661    18.449719831     1.800360088
 C        0.573115370    20.620397026     0.388653865
 C        0.443259913    21.968071713    -0.339014223
 N       -0.061386661    21.888389069    -1.718404503
 C       -1.296858044    21.267086774    -1.943163019
 C       -2.289329233    21.278963352    -0.938234734
 C       -3.512804320    20.666720611    -1.153788677
 C       -3.816160261    20.060764571    -2.381658102
 C       -2.842655421    20.072616955    -3.383635935
 C       -1.603682605    20.666065998    -3.179860115
 C        0.977847494    21.727767066    -2.744785719
 C       -5.124263051    19.428222169    -2.555103589
 C       -5.521215996    18.820979209    -3.681671756
Si       -7.150227639    18.026406818    -3.915387200
 C       -8.469287183    18.827261833    -2.913476592
 C       -8.389665263    20.193476052    -2.614091600
 C       -9.382619671    20.809105013    -1.856631231
 C      -10.485670210    20.080647656    -1.392425249
 C      -10.567461232    18.720004783    -1.701192548
 C       -9.572514407    18.099406632    -2.455484906
 C      -11.500546565    20.769773305    -0.602241301
 C      -12.600695837    20.188145622    -0.095094857
 C      -13.615969779    20.876559289     0.695140403
 C      -13.536405511    22.236665151     1.005102569
 C      -14.530303488    22.854557454     1.763964975
 C      -15.631632080    22.125352922     2.223020244
 C      -15.714174035    20.761149083     1.912747647
 C      -14.717042604    20.145600804     1.161339517
Si      -16.950914611    22.927606859     3.225479827
 C      -16.854993140    24.787539726     3.121410476
 C      -18.640545877    22.321191649     2.591996286
 C      -16.766048571    22.401478678     5.045382052
 C       -7.611956265    18.160819203    -5.756360709
 C       -7.026769416    16.185279484    -3.459981983
 C       -4.817103128    12.761453443    -1.883485234
 C       -5.274193548    12.639466902     1.184011712
 C       -0.612319044    -0.922550038    -1.548355612
 C       -0.658030431    -0.904335870     1.540409438
 H        1.201743168     2.700246748    -0.513761657
 H        0.270666448     4.942475259    -0.503524783
 H       -3.609271029     3.373431832     0.499772341
 H       -2.717961435     1.110842144     0.510461106
 H       -3.397886339     5.682481108     0.245646674
 H       -0.590604570     6.772795824    -0.471598728
 H       -4.259350198     7.512559362     0.273522338
 H       -5.191179775     9.755517928     0.280017800
 H       -1.261234319    11.352013869    -0.697706429
 H       -0.376969350     9.082430076    -0.719852323
 H       -2.026630803    13.407392519     0.962113966
 H       -2.986916284    15.044232479    -1.519186613
 H       -1.777434746    16.976481672    -2.019893260
 H        0.039124938    18.550338465    -1.606160856
 H        1.234603664    16.228865726     1.848318544
 H       -0.525371854    14.617079930     1.359254022
 H        3.116031371    19.248489209     1.908928798
 H        2.886440279    17.493910431     1.991448025
 H        1.590436136    18.593853027     2.571753667
 H        1.910424860    22.224731979    -2.431645005
 H        0.643931711    22.230140713    -3.672843910
 H        1.207626098    20.674509856    -2.980488101
 H       -2.099700294    21.764997858     0.013823421
 H       -4.255549190    20.665871794    -0.354240050
 H       -3.050512870    19.607126298    -4.348205757
 H       -0.878405109    20.649174101    -3.985775635
 H       -5.761585352    19.498978158    -1.662164756
 H       -4.857313125    18.755164805    -4.557160134
 H       -7.554857897    20.814406750    -2.956839336
 H       -9.299679896    21.869920088    -1.627366549
 H      -11.414474763    18.131380312    -1.354143028
 H       -9.693107841    17.033246006    -2.666166610
 H      -11.307809787    21.834107255    -0.438155578
 H      -12.793479565    19.123965637    -0.259420614
 H      -12.692392907    22.828146821     0.654975458
 H      -14.411926986    23.920826543     1.975730639
 H      -16.551842892    20.141005986     2.244114364
 H      -14.797638777    19.084684388     0.932461690
 H        2.706365912    20.300810464     0.005975232
 H        1.649267856    19.662740514    -1.267747725
 H       -0.374872179    20.046804268     0.303063923
 H        0.710659025    20.793938956     1.471533943
 H       -0.248154158    22.634757335     0.232133467
 H        1.422971770    22.496314247    -0.346715592
 H        2.263201830    -1.029845162     0.038397570
 H        2.261407223     0.541555606     0.878307110
 H        2.274878396     0.480863343    -0.905587906
 H      -17.674679151    25.260827933     3.691006867
 H      -16.938442591    25.129535370     2.073693675
 H      -15.903014064    25.172529946     3.526887910
 H      -18.643758333    21.202328333     2.742180648
 C      -19.833436178    22.903662968     3.370807011
 C      -18.840011424    22.595204084     1.090369678
 H      -17.569472699    22.959527891     5.607749958
 C      -16.983158417    20.895006407     5.274934085
 C      -15.402720588    22.799680189     5.639949609
 H       -6.789447977    17.638027911    -6.324161753
 C       -8.943024194    17.469896515    -6.099690620
 C       -7.669852693    19.622623382    -6.234935179
 H       -8.019639389    15.730949281    -3.745560013
 C       -5.924847313    15.442322807    -4.234616055
 C       -6.818326878    15.965689251    -1.951421681
 H       -5.063278349    13.864332123    -1.907770210
 C       -3.872582802    12.456952258    -3.060745811
 C       -6.124834810    11.975029481    -2.078229273
 H       -6.120619652    11.942127836     0.919736326
 C       -4.723794443    12.218166422     2.558630520
 C       -5.844162369    14.064648039     1.289691979
 H       -0.122569733    -1.938417310    -1.511354538
 C       -2.137122579    -1.130329469    -1.579704947
 C       -0.182030757    -0.232351163    -2.855727119
 H       -1.782269028    -0.911164191     1.438096230
 C       -0.185869325    -2.365569987     1.643274702
 C       -0.309161600    -0.171085639     2.848323185
 H      -19.797798033    22.688001840     4.446457127
 H      -20.772252040    22.466178890     3.001053441
 H      -19.933818819    23.990492355     3.250567164
 H      -18.050305172    22.160236013     0.461057602
 H      -18.898996636    23.665755548     0.853346154
 H      -19.785094018    22.150135021     0.748048412
 H      -17.976830047    20.546351139     4.966507670
 H      -16.896059853    20.662175476     6.346300496
 H      -16.233546174    20.272832826     4.765822061
 H      -15.202887520    23.877750397     5.590426875
 H      -14.560001184    22.282324327     5.159108430
 H      -15.362430122    22.528684948     6.704734455
 H       -8.946970676    16.395511115    -5.876367913
 H       -9.146404636    17.559543193    -7.176725308
 H       -9.804734996    17.921903021    -5.587698982
 H       -6.732425087    20.172480052    -6.074293611
 H       -8.476972157    20.196455408    -5.756872329
 H       -7.866955602    19.658278230    -7.315740636
 H       -6.034014901    15.509050531    -5.324072393
 H       -5.954985337    14.369076676    -3.991257906
 H       -4.914089490    15.790084575    -3.977205033
 H       -7.566769625    16.470253241    -1.324726557
 H       -5.826970191    16.295661008    -1.606256433
 H       -6.897620183    14.893436917    -1.716722545
 H       -2.930178734    13.021276846    -3.022977145
 H       -4.353317020    12.721779102    -4.012717626
 H       -3.613767726    11.390744015    -3.134739093
 H       -6.895283503    12.220602560    -1.336229421
 H       -5.976227605    10.886143111    -2.060574571
 H       -6.561488504    12.205492768    -3.060921266
 H       -4.333612188    11.190907806     2.576679522
 H       -5.523433931    12.255385477     3.311928443
 H       -3.927222896    12.881767214     2.922350060
 H       -6.330427010    14.410103489     0.367906341
 H       -5.082980192    14.810361756     1.562359138
 H       -6.611046684    14.106869908     2.075991567
 H       -2.517254686    -1.698967376    -0.721700596
 H       -2.419361405    -1.702700748    -2.475423970
 H       -2.695763967    -0.185231127    -1.633397229
 H        0.905257538    -0.117042004    -2.951363659
 H       -0.634547600     0.761765010    -2.982435498
 H       -0.504533969    -0.829329327    -3.720785764
 H       -0.459573022    -2.973688562     0.771487033
 H       -0.651897028    -2.849874999     2.513760776
 H        0.899028244    -2.455808519     1.786833541
 H       -0.664768346     0.869094486     2.870633975
 H        0.768535087    -0.156420412     3.058174999
 H       -0.783786528    -0.675940922     3.701732100

