187   

Si        0.000000000     0.000000000     0.000000000
 C        1.865932776     0.000000000     0.000000000
 C       -0.633489438     1.727746103     0.000000000
 C        0.016657005     2.695915979     0.774122244
 C       -0.442333158     4.011348438     0.792083964
 C       -1.582601589     4.384059730     0.074901645
 C       -2.240241265     3.409633461    -0.686872594
 C       -1.769314290     2.099293808    -0.729172889
 C       -2.094378661     5.750028521     0.068419958
 C       -1.541065563     6.777772160     0.734444938
 C       -2.052545238     8.143664650     0.728155804
 C       -3.193124763     8.506112965     0.008050613
 C       -3.654334410     9.820971601     0.024274492
 C       -2.942616948    10.818639501     0.699511165
 C       -1.779683793    10.464536637     1.395421558
 C       -1.344560565     9.141460961     1.411351029
Si       -3.565885710    12.548497956     0.710558560
 C       -2.312404810    13.784130969     0.219815725
 C       -2.027213012    14.897516594     0.908328161
 C       -1.022899561    15.885126421     0.512824513
 C       -0.825121380    17.008479304     1.327989328
 C        0.111180056    17.977207016     1.005417243
 C        0.929772472    17.827209346    -0.135479742
 C        0.737311823    16.692489318    -0.951772761
 C       -0.234090645    15.753480226    -0.633321782
 N        1.877737399    18.796168997    -0.472266537
 C        2.277721797    19.798923683     0.522808971
 C        2.909637378    18.436870206    -1.453492132
 C        2.939257339    19.236808075     1.792070850
 C        4.400794261    18.825180113     1.546866357
 N        4.960183963    17.976169272     2.608633253
 C        4.458571012    16.666929087     2.743881960
 C        3.636434371    16.075745770     1.764484161
 C        3.159723724    14.783503353     1.930100851
 C        3.512636196    14.020273003     3.050184095
 C        4.350870166    14.599281950     4.008573418
 C        4.825911483    15.894236450     3.863720451
 C        5.208283081    18.708292981     3.863786093
 C        2.986485551    12.660331672     3.185057697
 C        3.270440447    11.860224970     4.220680277
Si        2.693218187    10.153404230     4.523901516
 C        2.352139844     9.143114993     3.024502613
 C        2.420353167     9.659961631     1.728124981
 C        2.152432371     8.852167285     0.622340279
 C        1.861323390     7.496409844     0.784202244
 C        1.805059594     6.974013261     2.084340821
 C        2.033939254     7.787113583     3.189275774
 C        1.574476230     6.609032295    -0.335474080
 C        1.587519469     6.958318758    -1.632401895
 C        1.293475033     6.036054087    -2.725104430
 C        0.969187167     4.693311549    -2.509567098
 C        0.694881476     3.844647823    -3.579923114
 C        0.727646122     4.324427892    -4.894730090
 C        1.050875940     5.668722362    -5.113226923
 C        1.334396730     6.512054438    -4.041194108
Si        0.361037894     3.180860033    -6.289674902
 C       -1.088367169     2.082842778    -5.870427782
 C       -0.019138333     4.172832882    -7.868948781
 C        1.898295308     2.106429601    -6.617624205
 C        4.066095016     9.342607951     5.569804547
 C        1.086302654    10.217582841     5.544537596
 C       -5.026372275    12.743790072    -0.500198055
 C       -4.213388413    12.905086640     2.468403847
 C       -0.642113823    -0.924799746    -1.534631408
 C       -0.645929917    -0.892457952     1.550243751
 H        0.901898033     2.463204610     1.372930160
 H        0.075069188     4.745065901     1.408654863
 H       -3.125435625     3.678324746    -1.260084589
 H       -2.320413359     1.386055317    -1.347473098
 H       -2.988038468     5.899620344    -0.543479645
 H       -0.643366786     6.632766571     1.344548768
 H       -3.744647698     7.757006636    -0.556719270
 H       -4.574567287    10.029980201    -0.528011352
 H       -1.173814297    11.207629414     1.924830491
 H       -0.430901159     8.881132693     1.949962809
 H       -1.793716786    13.545904098    -0.722100482
 H       -2.532949102    15.158417619     1.848339246
 H       -1.424896977    17.131909837     2.230848461
 H        0.206127856    18.849131267     1.644005879
 H        1.335967007    16.543958996    -1.843745737
 H       -0.370193392    14.891034330    -1.288004645
 H        3.666847840    19.232567021    -1.539618694
 H        2.437367969    18.333969038    -2.449618694
 H        3.426215066    17.490708636    -1.213653139
 H        5.437281309    19.765808400     3.656961226
 H        6.097825495    18.279041211     4.360318442
 H        4.357335056    18.667980049     4.563284832
 H        3.338059696    16.629831426     0.878874630
 H        2.497785662    14.361774976     1.171030006
 H        4.646526406    14.027125269     4.889352826
 H        5.485510018    16.303593226     4.622125185
 H        2.320596112    12.367921639     2.362286974
 H        3.928379712    12.221342528     5.031397449
 H        2.683101727    10.703899120     1.530700247
 H        2.183933660     9.287956573    -0.374610750
 H        1.591759275     5.917866748     2.237051054
 H        1.950657122     7.324377067     4.177256619
 H        1.351631591     5.574098236    -0.052985455
 H        1.814272290     7.982881584    -1.937034496
 H        0.917185517     4.294882509    -1.494797161
 H        0.448116556     2.804791688    -3.344007885
 H        1.095155102     6.099578155    -6.116556096
 H        1.585029147     7.553476564    -4.232334867
 H        2.951956891    20.537367880     0.032960267
 H        1.362591484    20.376169618     0.803898611
 H        2.888149509    19.985834279     2.602754394
 H        2.363806052    18.363215324     2.167010722
 H        4.504971248    18.279324732     0.581551332
 H        5.046653729    19.726931889     1.449050323
 H        2.264394975    -1.028409919    -0.051906685
 H        2.277839888     0.470764385     0.909292485
 H        2.260469945     0.555425324    -0.871469226
 H       -1.361386335     1.440765081    -6.725806646
 H       -1.975477734     2.689249852    -5.610422043
 H       -0.871943712     1.423936111    -5.011463204
 H        0.872576596     4.844422861    -8.036594933
 C       -0.182974133     3.292991469    -9.121898337
 C       -1.265779868     5.065049590    -7.723889610
 H        1.612231913     1.408543673    -7.456155332
 C        3.118645715     2.927186046    -7.072701141
 C        2.303980567     1.250935964    -5.403586941
 H        4.278199677    10.076935499     6.401032675
 C        3.687872099     8.002348161     6.222017447
 C        5.360901024     9.153026871     4.758911016
 H        0.836723657     9.145386954     5.792177509
 C        1.241008227    10.991672827     6.865254652
 C       -0.092271891    10.809087749     4.751989322
 H       -5.763811657    11.932345007    -0.235975451
 C       -5.745640757    14.097860646    -0.361321387
 C       -4.608296706    12.556487301    -1.970033592
 H       -4.574742779    13.973607254     2.451272588
 C       -5.399372064    12.006345572     2.861956860
 C       -3.124774142    12.785033721     3.550209168
 H       -1.768412987    -0.875590074    -1.478829028
 C       -0.200978486    -0.262551132    -2.852367443
 C       -0.240104403    -2.410395621    -1.566173854
 H       -0.202017130    -1.929002368     1.517289622
 C       -0.190243277    -0.221111595     2.858753176
 C       -2.179012671    -1.029049414     1.573040918
 H        0.703619267     2.685383010    -9.344815245
 H       -0.350710757     3.925868798   -10.005434212
 H       -1.045435669     2.616439332    -9.061326573
 H       -1.219099326     5.746794441    -6.862893488
 H       -2.195284115     4.487013371    -7.634613715
 H       -1.380827137     5.699961627    -8.613741577
 H        2.942098728     3.497731853    -7.993285811
 H        3.965088644     2.258242067    -7.284200139
 H        3.468998115     3.632051607    -6.304815430
 H        1.510200671     0.571835580    -5.066213345
 H        2.618244102     1.857380926    -4.541366221
 H        3.163130026     0.615657372    -5.661582750
 H        2.766732878     8.047500365     6.816268704
 H        4.482973413     7.686121895     6.913324472
 H        3.581545007     7.188320189     5.492365451
 H        5.742600602    10.085914905     4.320433683
 H        5.250401505     8.427434100     3.940310942
 H        6.160278887     8.766761057     5.406683376
 H        2.021217023    10.586323873     7.521503277
 H        0.304419092    10.945779910     7.439487535
 H        1.453977889    12.058947767     6.711093778
 H       -0.331124444    10.235443720     3.844590533
 H        0.069797286    11.855424946     4.455528651
 H       -1.003151024    10.799150663     5.367411924
 H       -6.171828074    14.263563150     0.636361138
 H       -6.587017006    14.150835478    -1.066796412
 H       -5.095906780    14.953898607    -0.593074979
 H       -4.085557698    11.610141065    -2.164553731
 H       -3.964133109    13.369352020    -2.333782725
 H       -5.497118723    12.555155869    -2.616687487
 H       -6.264467009    12.107966126     2.194539038
 H       -5.755219381    12.271102588     3.867829912
 H       -5.133401563    10.940095191     2.901731049
 H       -2.234441266    13.397400074     3.350982656
 H       -2.787914575    11.748354818     3.697798991
 H       -3.520130252    13.120275498     4.519209483
 H       -0.497427156     0.794297343    -2.924473585
 H       -0.665081970    -0.776217595    -3.706345897
 H        0.884944611    -0.314961292    -3.012415397
 H       -0.588340866    -2.974361618    -0.691289845
 H        0.844507487    -2.560153885    -1.649199217
 H       -0.686044049    -2.901926067    -2.443014965
 H        0.900717309    -0.157949444     2.959383060
 H       -0.544719253    -0.802148822     3.722461203
 H       -0.598619397     0.792206667     2.982902038
 H       -2.579904239    -1.584476620     0.715652409
 H       -2.693871444    -0.058473002     1.613618239
 H       -2.494523593    -1.580985364     2.470368832

