187   

Si        0.000000000     0.000000000     0.000000000
 C        1.865442023     0.000000000     0.000000000
 C       -0.670361978     1.714678960     0.000000000
 C        0.131411435     2.797621077    -0.374859618
 C       -0.381668543     4.094371908    -0.372990450
 C       -1.706941981     4.338276385    -0.002971527
 C       -2.510378044     3.251641509     0.367489872
 C       -2.000879425     1.955927884     0.367523494
 C       -2.284644049     5.678270898     0.013253674
 C       -1.621305449     6.799039143    -0.318101114
 C       -2.193152431     8.141318701    -0.303906082
 C       -3.517758379     8.393459913     0.064943455
 C       -4.021961282     9.693317088     0.063776730
 C       -3.206860286    10.770728413    -0.299912268
 C       -1.879591896    10.521935335    -0.670398548
 C       -1.381927747     9.221341946    -0.675681354
Si       -3.862773217    12.489716015    -0.304651951
 C       -2.472893652    13.674684705    -0.254942859
 C       -2.300759047    14.722533828    -1.071270877
 C       -1.167042392    15.645214473    -0.990660983
 C       -1.090307473    16.709786063    -1.899904125
 C       -0.037563955    17.609719841    -1.864440558
 C        0.962263130    17.502126252    -0.873486670
 C        0.885482059    16.433191965     0.040079141
 C       -0.151366299    15.513085710    -0.039716753
 N        2.026148588    18.421209928    -0.847222816
 C        1.734690086    19.801411599    -1.275082286
 C        2.930920771    18.359045082     0.313438885
 C        0.682529102    20.500297042    -0.395105421
 C        0.704200945    22.031918976    -0.531464916
 N        1.972417185    22.701276209    -0.154429977
 C        2.678469002    22.085913806     0.906907232
 C        1.996744365    21.900030269     2.127915952
 C        2.638633879    21.303494101     3.199601508
 C        3.978833487    20.897046855     3.104512044
 C        4.656778586    21.107385124     1.902241828
 C        4.026251337    21.706000081     0.816530704
 C        2.773727513    23.122784280    -1.315376304
 C        4.610682330    20.270800844     4.267971580
 C        5.880280243    19.845955095     4.288567149
Si        6.726735816    19.058462550     5.704138779
 C        7.543384283    17.514758356     5.126543190
 C        7.080423823    16.870265366     3.972393924
 C        7.691031942    15.701162486     3.526022818
 C        8.768091250    15.142188882     4.226379009
 C        9.222298954    15.784640753     5.381934949
 C        8.616599630    16.958062484     5.829576772
 C        9.373892708    13.915987826     3.717904341
 C       10.411533133    13.280348482     4.288150624
 C       11.015809011    12.054058968     3.777830945
 C       10.560370559    11.413495013     2.622714449
 C       11.167625424    10.242244226     2.169984526
 C       12.249945447     9.689016549     2.861253700
 C       12.709205686    10.330093823     4.019995662
 C       12.097560063    11.495869707     4.472333660
Si       13.062453796     8.143891801     2.276993066
 C       12.526273176     7.698182384     0.546819469
 C       14.947385782     8.403042464     2.335344867
 C       12.611659877     6.709226873     3.443863830
 C        8.031386305    20.264009502     6.383449965
 C        5.501588120    18.632282390     7.093659690
 C       -4.933835694    12.745582053    -1.854823634
 C       -4.944796146    12.757103563     1.237771307
 C       -0.622761210    -0.915403877    -1.547944214
 C       -0.654475602    -0.907998953     1.539868767
 H        1.175524727     2.670215633    -0.673848787
 H        0.264635867     4.920106311    -0.665279066
 H       -3.545541992     3.419253274     0.658704203
 H       -2.675148499     1.148368129     0.665809842
 H       -3.332525958     5.721907909     0.323295505
 H       -0.572950532     6.753164923    -0.628294428
 H       -4.168823252     7.571730775     0.356525173
 H       -5.065818645     9.829136057     0.359303368
 H       -1.199348827    11.327273603    -0.967235709
 H       -0.348926183     9.045593146    -0.970153170
 H       -1.750004698    13.458598307     0.549920684
 H       -3.004140242    14.971307346    -1.876359113
 H       -1.864913082    16.827988895    -2.658015991
 H        0.010669600    18.401064992    -2.606292444
 H        1.636634733    16.308687803     0.813981368
 H       -0.176304946    14.683990760     0.669754948
 H        3.711074174    19.136794148     0.229331823
 H        3.448457096    17.382856575     0.318307538
 H        2.420790808    18.503815824     1.280313121
 H        2.151693138    23.769095272    -1.959939897
 H        3.166693448    22.295581536    -1.926214242
 H        3.620059230    23.743573321    -0.969684192
 H        0.965828372    22.233938337     2.222516497
 H        2.095441830    21.158412038     4.134037933
 H        5.701583350    20.807058722     1.805481500
 H        4.586575960    21.856842778    -0.100997000
 H        3.937556436    20.180192934     5.130188809
 H        6.532771172    19.961718253     3.406296524
 H        6.238935823    17.258077650     3.388661752
 H        7.322660125    15.216279278     2.623796881
 H       10.057019656    15.370465524     5.944355678
 H        9.015445750    17.416623898     6.738538121
 H        8.915502009    13.524415012     2.804912319
 H       10.870290588    13.671024773     5.201150510
 H        9.721803070    11.825335682     2.064078149
 H       10.766014138     9.786143713     1.260863316
 H       13.551616591     9.943868770     4.600820887
 H       12.467307429    11.978379625     5.375112188
 H        2.693706291    20.368102513    -1.263368742
 H        1.408205321    19.783739752    -2.338544079
 H       -0.327761399    20.122160779    -0.646779841
 H        0.836444328    20.212452182     0.665031950
 H        0.430911098    22.321904377    -1.568937922
 H       -0.085485436    22.466015310     0.129301927
 H        2.263631107    -1.028524443     0.061756672
 H        2.260185207     0.561474628     0.866402104
 H        2.275799735     0.460725062    -0.915475277
 H       13.047486295     6.791986269     0.189776152
 H       12.756454629     8.513960327    -0.162330078
 H       11.441352324     7.500380122     0.492840441
 H       15.195848828     8.624946927     3.413998564
 C       15.751407259     7.160728192     1.912608140
 C       15.402752343     9.606775741     1.490608485
 H       13.090689316     5.790950001     2.995938652
 C       13.155839024     6.880583970     4.873383108
 C       11.093169738     6.466334218     3.520470224
 H        8.507393384    19.742798421     7.264048239
 C        9.138171472    20.573368130     5.359683488
 C        7.425226796    21.586874306     6.883602187
 H        4.960556794    19.592371333     7.336833146
 C        4.456997322    17.589401905     6.655372325
 C        6.187673973    18.134178285     8.378188792
 H       -5.218599013    13.837557661    -1.857525448
 C       -4.165407404    12.445790515    -3.154971499
 C       -6.230802182    11.916748452    -1.846131064
 H       -5.797468781    12.023350353     1.150566065
 C       -4.191306828    12.455730435     2.545579490
 C       -5.541155794    14.173433157     1.316285012
 H       -0.143416622    -1.936194701    -1.514202601
 C       -2.150000207    -1.106016209    -1.572882473
 C       -0.189895545    -0.227717338    -2.855756877
 H       -1.779220957    -0.910573703     1.443386270
 C       -0.187575686    -2.371574627     1.634122450
 C       -0.295852707    -0.181866657     2.849086028
 H       15.531889641     6.273058250     2.519840926
 H       16.827978162     7.353405226     2.028571156
 H       15.600376983     6.890930156     0.858980066
 H       14.908295637    10.547156692     1.773507396
 H       15.243801849     9.460591579     0.414004276
 H       16.480928562     9.774957279     1.624078047
 H       14.247505595     6.983134804     4.915581677
 H       12.908112241     5.995400283     5.477377104
 H       12.714763620     7.740364820     5.397167864
 H       10.635441155     6.252254050     2.546130318
 H       10.547380693     7.310598738     3.965958779
 H       10.882668442     5.594488807     4.156444172
 H        9.648104258    19.674972498     4.984045660
 H        9.916647358    21.196103792     5.823364353
 H        8.772199893    21.135670166     4.489775303
 H        6.683515018    21.452377860     7.681459400
 H        6.949450096    22.170066001     6.082130125
 H        8.214218816    22.227883340     7.302625790
 H        3.890259019    17.881616217     5.760909002
 H        3.717274489    17.437490977     7.454030475
 H        4.899477561    16.602682399     6.455052569
 H        6.876165133    18.867399795     8.817254675
 H        6.742362553    17.196459334     8.231919058
 H        5.432440947    17.923770045     9.149628558
 H       -3.240032072    13.028052070    -3.263488033
 H       -4.788221663    12.689540333    -4.026892594
 H       -3.897407542    11.383948059    -3.255235121
 H       -6.889123845    12.146290067    -0.998748896
 H       -6.046518804    10.833154929    -1.846287268
 H       -6.816012764    12.125960580    -2.753418281
 H       -3.771135163    11.440602071     2.581877568
 H       -4.876195711    12.534603494     3.401717997
 H       -3.372138842    13.161563758     2.740192624
 H       -6.166926979    14.430826514     0.452157092
 H       -4.774439764    14.955190747     1.416339968
 H       -6.187424885    14.261563798     2.201147151
 H       -2.531574049    -1.678110919    -0.717767398
 H       -2.443733835    -1.667065223    -2.472008111
 H       -2.698605148    -0.154301729    -1.614158878
 H        0.898246677    -0.124999261    -2.955565806
 H       -0.631666943     0.771677456    -2.978948241
 H       -0.522789914    -0.819340690    -3.720584976
 H       -0.469077804    -2.975007571     0.761543605
 H       -0.650359036    -2.857523481     2.505421138
 H        0.897759107    -2.466939936     1.770812052
 H       -0.647508023     0.859468761     2.878178832
 H        0.783160636    -0.171762245     3.052709352
 H       -0.767009495    -0.689033234     3.703028373

