187   

Si        0.000000000     0.000000000     0.000000000
 C        1.865312349     0.000000000     0.000000000
 C       -0.684177638     1.708733991     0.000000000
 C        0.126954879     2.814221230     0.274439877
 C       -0.405764577     4.103430468     0.270823859
 C       -1.759684275     4.316249996    -0.000685646
 C       -2.572025315     3.206932296    -0.272113598
 C       -2.042961269     1.919480639    -0.271671242
 C       -2.361567016     5.645283789    -0.015692415
 C       -1.699203761     6.789761231     0.224040561
 C       -2.305383410     8.117061546     0.207965856
 C       -1.498409109     9.230637228     0.475998959
 C       -2.033759398    10.516199985     0.471507743
 C       -3.388386810    10.719894036     0.181162957
 C       -4.195733118     9.609378145    -0.088309567
 C       -3.660151037     8.322527287    -0.067940961
Si       -4.113641339    12.409188244     0.170294026
 C       -5.520476235    12.571766462    -0.984814561
 C       -5.650495173    11.863800794    -2.114866499
 C       -6.775273561    11.990801708    -3.042607808
 C       -6.792896472    11.189599649    -4.193954559
 C       -7.832408140    11.268630534    -5.105634600
 C       -8.868748176    12.210123660    -4.926891218
 C       -8.846134694    13.022270249    -3.778335306
 C       -7.823086922    12.893612072    -2.846523249
 N       -9.916040646    12.270582194    -5.869555870
 C       -9.529800580    12.088678479    -7.285163284
 C      -10.904399012    13.345851151    -5.678780774
 C       -8.347319839    12.974298790    -7.721341516
 C       -8.464327863    13.510387626    -9.157588076
 N       -9.598380936    14.420294808    -9.430216568
 C       -9.961430751    15.312734635    -8.406477638
 C       -8.939020510    16.003164448    -7.717483228
 C       -9.256482645    16.889450958    -6.704208399
 C      -10.593288703    17.173861038    -6.383350722
 C      -11.602784136    16.519324226    -7.090425242
 C      -11.300786659    15.603777069    -8.092608481
 C      -10.684698356    13.792430897   -10.196788982
 C      -10.863206430    18.119979034    -5.301431329
 C      -12.087272101    18.480884001    -4.892630163
Si      -12.349254492    19.672835421    -3.529319527
 C      -10.945144233    19.547016180    -2.345715555
 C      -10.514125919    18.269049270    -1.964959594
 C       -9.456341642    18.115097227    -1.072461457
 C       -8.807313854    19.231825243    -0.535977177
 C       -9.240991456    20.507600212    -0.916128593
 C      -10.298042233    20.665173589    -1.811069286
 C       -7.695583174    19.111049266     0.401660903
 C       -7.196659820    17.941312257     0.835516288
 C       -6.087230873    17.800194618     1.771454178
 C       -5.415041251    18.892634214     2.324735526
 C       -4.358855781    18.702332463     3.216411263
 C       -3.959889550    17.412640398     3.580419526
 C       -4.640990802    16.316347921     3.035499591
 C       -5.695249181    16.508679471     2.148208556
Si       -2.570805798    17.127495084     4.753920063
 C       -1.572750668    18.677108212     5.030672408
 C       -3.271366446    16.527202863     6.418939594
 C       -1.473730869    15.742068422     4.042927749
 C      -12.481679929    21.429322510    -4.245215252
 C      -13.975103339    19.253099532    -2.638371601
 C       -4.744140081    12.762070223     1.931568174
 C       -2.805321636    13.718451805    -0.269706052
 C       -0.654053818    -0.903376405    -1.542909424
 C       -0.610253612    -0.926378498     1.546997212
 H        1.193032607     2.710431630     0.494273972
 H        0.247545814     4.947374505     0.484514180
 H       -3.629474753     3.350761989    -0.486116336
 H       -2.725110912     1.093488970    -0.492082912
 H       -3.431772857     5.659501126    -0.243017512
 H       -0.629488122     6.777252380     0.451561309
 H       -0.441368538     9.092109091     0.693889046
 H       -1.357729336    11.345926861     0.695965599
 H       -5.262331591     9.709064706    -0.317736136
 H       -4.310439220     7.474428779    -0.275038712
 H       -6.269731382    13.323995698    -0.693923309
 H       -4.911141617    11.115562538    -2.434729579
 H       -5.985290186    10.477283450    -4.367141633
 H       -7.844656081    10.601826146    -5.962652515
 H       -9.621893388    13.762428808    -3.604501818
 H       -7.835595509    13.527130417    -1.958202922
 H      -11.689081138    13.275266521    -6.450212307
 H      -10.471390501    14.361270734    -5.731756614
 H      -11.402464821    13.214243351    -4.701903778
 H      -10.262068747    13.333305002   -11.108405707
 H      -11.395030493    14.566749258   -10.539509698
 H      -11.242255007    13.022646892    -9.640644501
 H       -7.898803930    15.841176597    -7.989713686
 H       -8.452718673    17.390376923    -6.160794006
 H      -12.649098359    16.726060539    -6.861546041
 H      -12.113995602    15.109601403    -8.612934678
 H       -9.944502250    18.507917409    -4.834557357
 H      -12.996577099    18.093908829    -5.371341739
 H      -10.979653160    17.357602782    -2.357045357
 H       -9.136723824    17.111181849    -0.797001798
 H       -8.748992093    21.389329948    -0.510211460
 H      -10.594439342    21.685083722    -2.069518851
 H       -7.276463216    20.060457394     0.745085401
 H       -7.620536790    16.993797849     0.486407643
 H       -5.707935567    19.906119380     2.057944471
 H       -3.865623820    19.594386632     3.611544219
 H       -4.373910645    15.285118496     3.292163555
 H       -6.222658043    15.646205370     1.741710351
 H       -9.285204723    11.012041437    -7.432028500
 H      -10.421759610    12.281891124    -7.919476107
 H       -8.235351048    13.815931006    -7.005872948
 H       -7.399410330    12.408845944    -7.625814274
 H       -7.536189923    14.082986502    -9.406070965
 H       -8.498957501    12.659276477    -9.872264980
 H        2.262778732    -1.030074892    -0.035999801
 H        2.275016922     0.482994325     0.904384824
 H        2.261522204     0.539303976    -0.879535925
 H       -0.714677440    18.485447947     5.699539196
 H       -2.178729281    19.477786136     5.489803983
 H       -1.169273938    19.064309471     4.077315655
 H       -2.381461672    16.423109012     7.104685303
 C       -4.242384113    17.542747225     7.048618913
 C       -3.973511683    15.159516739     6.338533020
 H       -2.122470398    14.816849694     4.029381044
 C       -1.020750252    16.017586213     2.598425393
 C       -0.238348140    15.435517649     4.907209821
 H      -12.576950342    22.120280779    -3.358144318
 C      -11.227253278    21.835427430    -5.039860709
 C      -13.719556516    21.631218929    -5.137751788
 H      -14.788145982    19.355758827    -3.414239482
 C      -14.005281623    17.808509276    -2.107354083
 C      -14.293276843    20.216803223    -1.481745197
 H       -5.098213564    13.833035100     1.923066943
 C       -5.936472058    11.870576007     2.320092856
 C       -3.646856511    12.620869519     3.000510497
 H       -2.039863878    13.692416566     0.558815248
 C       -2.089400757    13.403991387    -1.595528310
 C       -3.378102606    15.144932306    -0.342186776
 H       -1.778843216    -0.905004393    -1.446698290
 C       -0.295342128    -0.172709574    -2.849609496
 C       -0.187500767    -2.366607104    -1.641931451
 H       -0.109331473    -1.936913605     1.513855974
 C       -0.192898288    -0.228829506     2.854705496
 C       -2.132743418    -1.150539819     1.572581315
 H       -3.793740594    18.530226905     7.216739705
 H       -4.574710114    17.185611088     8.033977579
 H       -5.153994173    17.688887145     6.451492548
 H       -3.319073123    14.353487886     5.982971548
 H       -4.869436808    15.176419735     5.702002741
 H       -4.316030429    14.855143199     7.338514587
 H       -1.859420981    16.176976328     1.904074131
 H       -0.458854454    15.156747116     2.208146828
 H       -0.353984680    16.885430047     2.514785954
 H       -0.486678217    15.159139375     5.940025062
 H        0.474243213    16.269835103     4.947666522
 H        0.312602380    14.581975152     4.485596146
 H      -10.297144276    21.766951831    -4.459375351
 H      -11.309744949    22.881188393    -5.367613781
 H      -11.088935833    21.236272550    -5.951990979
 H      -14.667759853    21.445274603    -4.617575447
 H      -13.702690293    21.004683413    -6.040298276
 H      -13.762947677    22.672505431    -5.488880122
 H      -13.828827322    17.053206506    -2.885046906
 H      -14.993220862    17.585950432    -1.679505894
 H      -13.277601820    17.635433501    -1.301518027
 H      -14.375548873    21.264909837    -1.797033153
 H      -13.553321441    20.169977163    -0.669805344
 H      -15.260810307    19.955537907    -1.029168682
 H       -6.791256254    11.961436594     1.636326010
 H       -6.306878813    12.148280912     3.317156130
 H       -5.673515171    10.804847514     2.377307765
 H       -2.773545022    13.262328309     2.818958657
 H       -3.280997479    11.588729766     3.100618922
 H       -4.042570792    12.900410448     3.987895749
 H       -1.605324837    12.418234159    -1.611101248
 H       -1.294562634    14.140710313    -1.778970153
 H       -2.761019080    13.453975793    -2.464794474
 H       -3.839321232    15.482620892     0.596876703
 H       -4.122488948    15.269454060    -1.141073063
 H       -2.575338907    15.863746572    -0.560456726
 H       -0.652153538     0.866903094    -2.876931355
 H       -0.762310487    -0.679904010    -3.705832965
 H        0.783952331    -0.157188797    -3.050936249
 H       -0.470448209    -2.973300010    -0.772059080
 H        0.898013490    -2.461661172    -1.777382993
 H       -0.649048000    -2.849050140    -2.515816992
 H        0.892847269    -0.104139307     2.955908849
 H       -0.515282358    -0.826191350     3.719605578
 H       -0.654390592     0.761810644     2.976244719
 H       -2.505501932    -1.713553806     0.707669962
 H       -2.700985233    -0.211733012     1.635256869
 H       -2.410886549    -1.735623389     2.461365576

