187   

Si        0.000000000     0.000000000     0.000000000
 C        1.865402650     0.000000000     0.000000000
 C       -0.676268471     1.712238586     0.000000000
 C        0.142901629     2.812865544     0.270455487
 C       -0.381468174     4.105365440     0.267461202
 C       -1.735161919     4.326784106     0.001564810
 C       -2.555563451     3.222559166    -0.265885417
 C       -2.034533417     1.931681304    -0.267035724
 C       -2.326929513     5.660530031    -0.012163389
 C       -1.652710438     6.798850129     0.223742330
 C       -2.243528319     8.132930573     0.210241272
 C       -3.597269236     8.355229697    -0.055592059
 C       -4.120227460     9.648134519    -0.058256387
 C       -3.301206755    10.747293309     0.217221475
 C       -1.943330247    10.527069472     0.484978320
 C       -1.421849242     9.236496542     0.476235819
Si       -3.962238491    12.463730493     0.220990144
 C       -3.112754787    13.512215134     1.459150827
 C       -2.602323472    13.018484726     2.595027867
 C       -1.914740549    13.810580979     3.616936259
 C       -1.434553258    13.145222685     4.755567711
 C       -0.775561115    13.837379249     5.758350720
 C       -0.593646633    15.227956851     5.648921270
 C       -1.059044810    15.896657857     4.510955908
 C       -1.696603784    15.185179835     3.498078527
 N        0.096499058    15.861583589     6.728493700
 C       -0.726016303    15.946869732     7.956909562
 C        0.750193299    17.136808522     6.386894080
 C       -1.859583845    16.989101720     7.897667177
 C       -3.185638822    16.488928832     8.500561189
 N       -4.042434446    15.696265166     7.594261736
 C       -4.267489226    16.234982468     6.312330234
 C       -4.398721619    17.632486973     6.159807411
 C       -4.620328525    18.182782360     4.908406662
 C       -4.761838091    17.371616810     3.773950149
 C       -4.672915070    15.986426339     3.933187627
 C       -4.450038726    15.418830979     5.180838309
 C       -3.786065653    14.248023463     7.662410127
 C       -4.994268731    18.011333699     2.479470280
 C       -5.145549243    17.347993045     1.325481235
Si       -5.435492936    18.163034524    -0.284393920
 C       -4.653342035    19.826271661    -0.346207524
 C       -3.443808449    20.045565092     0.327459549
 C       -2.834492507    21.296496926     0.293944116
 C       -3.408867912    22.354825961    -0.422907653
 C       -4.610406192    22.130676799    -1.100195287
 C       -5.226347329    20.879798224    -1.064257303
 C       -2.732420894    23.647812213    -0.428082112
 C       -3.178010069    24.741631542    -1.069092475
 C       -2.502188330    26.034880820    -1.074745153
 C       -1.300776713    26.261039987    -0.398202516
 C       -0.688912663    27.514153599    -0.430565025
 C       -1.263335964    28.567912650    -1.148207877
 C       -2.467868379    28.343305065    -1.828622737
 C       -3.079320245    27.093387666    -1.789312571
Si       -0.468634122    30.227688916    -1.201043160
 C        1.279219457    30.172475437    -0.551595239
 C       -0.481319317    30.836994280    -3.004397170
 C       -1.476442562    31.447292332    -0.142672818
 C       -4.646484036    17.071650197    -1.628553683
 C       -7.304622503    18.284665042    -0.605484581
 C       -3.719280558    13.236813669    -1.496581073
 C       -5.821321225    12.426554350     0.629869155
 C       -0.657511324    -0.900497149    -1.542770551
 C       -0.612126036    -0.924893412     1.546780992
 H        1.209208871     2.702734810     0.486502194
 H        0.278684581     4.945183338     0.476932159
 H       -3.612785956     3.372924971    -0.476091766
 H       -2.722594351     1.109934324    -0.484830334
 H       -3.397593582     5.683736260    -0.235268964
 H       -0.581779692     6.775351723     0.446388532
 H       -4.257504876     7.516053514    -0.266347896
 H       -5.185378794     9.757755651    -0.278996365
 H       -1.254568299    11.350378006     0.704345554
 H       -0.363647576     9.085622442     0.682323972
 H       -3.055775691    14.584227942     1.217680011
 H       -2.658130182    11.949942464     2.852804332
 H       -1.573543390    12.067987400     4.851573757
 H       -0.378224219    13.313035620     6.625220171
 H       -0.934319750    16.971290623     4.409907638
 H       -2.048436288    15.722385689     2.615225157
 H        1.404061291    17.430484784     7.226316980
 H        0.060122360    17.968367809     6.177657927
 H        1.396768357    16.985368696     5.504420589
 H       -3.620688384    13.941579747     8.707619200
 H       -2.920076978    13.923798585     7.059063147
 H       -4.684581438    13.708537795     7.309366625
 H       -4.327836335    18.284648552     7.025100662
 H       -4.698123531    19.266400720     4.810652699
 H       -4.781460702    15.326341807     3.069247165
 H       -4.382380446    14.337195147     5.256322905
 H       -5.029950272    19.108567795     2.542196749
 H       -5.112891344    16.248219595     1.289055708
 H       -2.947287182    19.253885055     0.899854003
 H       -1.899482996    21.450780691     0.829083547
 H       -5.077545941    22.935363806    -1.664852032
 H       -6.165225102    20.766183913    -1.612880349
 H       -1.800616102    23.678839612     0.144172472
 H       -4.109826120    24.710230991    -1.641379542
 H       -0.830544471    25.456045297     0.163537529
 H        0.248998072    27.630639610     0.119479285
 H       -2.962361330    29.129138785    -2.406683896
 H       -4.015362302    26.938705196    -2.322606695
 H       -1.136251158    14.934127023     8.165243432
 H       -0.034298079    16.176913674     8.797737895
 H       -1.546825403    17.911648662     8.419537910
 H       -2.026051379    17.297869467     6.843729027
 H       -2.992271842    15.897585391     9.421871219
 H       -3.794702212    17.365023971     8.832124310
 H        2.263315203    -1.029704689    -0.042029130
 H        2.274976137     0.477734222     0.907225904
 H        2.261407311     0.544366068    -0.876567264
 H        1.763809807    31.162273851    -0.627878183
 H        1.893436514    29.457359059    -1.128469277
 H        1.312441718    29.867030796     0.508837451
 H       -1.568114709    30.889574481    -3.305327016
 C        0.125121342    32.240185074    -3.182917334
 C        0.224742004    29.859530985    -3.961352173
 H       -0.903948483    32.419307865    -0.169906690
 C       -2.891882120    31.713212356    -0.685527781
 C       -1.588021537    31.000056348     1.326453976
 H       -5.142011427    16.061108249    -1.536826743
 C       -4.889091002    17.590307259    -3.055713978
 C       -3.133563725    16.889642062    -1.411435273
 H       -7.416912109    18.781879707    -1.612091342
 C       -8.004907075    16.915781041    -0.674804144
 C       -8.018143871    19.157892811     0.442066239
 H       -4.103612175    14.296938355    -1.420198383
 C       -2.236122512    13.296479313    -1.903374390
 C       -4.514250111    12.522307048    -2.602342142
 H       -6.290747504    11.758800565    -0.149219949
 C       -6.096718057    11.814994937     2.015556046
 C       -6.509454774    13.799137026     0.549412879
 H       -1.782190136    -0.900141460    -1.445060891
 C       -0.298699514    -0.169777063    -2.849322612
 C       -0.194299211    -2.364716417    -1.643379310
 H       -0.115900392    -1.937795584     1.512055420
 C       -0.189929268    -0.231134355     2.854934586
 C       -2.135582507    -1.142661838     1.574003031
 H       -0.377659648    33.010493761    -2.583970486
 H        0.032820075    32.557945301    -4.231775667
 H        1.196421223    32.277467095    -2.944859463
 H       -0.193859364    28.843330792    -3.930145382
 H        1.303566725    29.778470346    -3.773488974
 H        0.116624098    30.203927250    -4.999756425
 H       -2.899006602    32.115957095    -1.706249394
 H       -3.400086106    32.460227285    -0.058288303
 H       -3.529564494    30.818122737    -0.670641847
 H       -0.615473395    30.869282669     1.818106782
 H       -2.149954971    30.062513356     1.445925969
 H       -2.128083614    31.758536316     1.911211234
 H       -5.951961603    17.662319582    -3.319063759
 H       -4.437374334    16.905002436    -3.787579945
 H       -4.433433496    18.574054485    -3.237745636
 H       -2.879960306    16.468499264    -0.428358405
 H       -2.570404034    17.826645271    -1.526834041
 H       -2.725416556    16.194486311    -2.159916952
 H       -7.613862492    16.267609457    -1.469465451
 H       -9.074485382    17.052111593    -0.890215042
 H       -7.952535895    16.360863760     0.272811098
 H       -7.613151257    20.176971929     0.511648451
 H       -7.988925537    18.722261825     1.451738800
 H       -9.080801656    19.266854214     0.184076910
 H       -1.611453746    13.857050612    -1.194164048
 H       -2.130678535    13.800657880    -2.874618674
 H       -1.785799828    12.301114251    -2.027503076
 H       -5.598447249    12.526301849    -2.431980445
 H       -4.202671946    11.478436326    -2.749278643
 H       -4.353568500    13.025799021    -3.566848423
 H       -5.700061512    10.797260872     2.131549059
 H       -7.179723557    11.741956913     2.187916692
 H       -5.693623718    12.422389913     2.839428271
 H       -6.390281028    14.291496806    -0.424280223
 H       -6.163470238    14.494656032     1.327841331
 H       -7.592411472    13.686115972     0.704232439
 H       -0.649887359     0.871814103    -2.874309973
 H       -0.770859323    -0.673156820    -3.704987641
 H        0.780138069    -0.159861964    -3.053623632
 H       -0.480606463    -2.972119555    -0.775099479
 H        0.891221343    -2.462499306    -1.776885728
 H       -0.655299085    -2.844533317    -2.519029975
 H        0.896535437    -0.111260140     2.954639322
 H       -0.513404504    -0.828431512     3.719463665
 H       -0.646963879     0.761237682     2.978656831
 H       -2.510463089    -1.709106684     0.712219653
 H       -2.700312122    -0.201508509     1.631708053
 H       -2.415816351    -1.721802651     2.466038752

