187   

Si        0.000000000     0.000000000     0.000000000
 C        1.865104577     0.000000000     0.000000000
 C       -0.677683254     1.711731541     0.000000000
 C        0.114393003     2.800023759    -0.379696322
 C       -0.408160247     4.093235415    -0.376416372
 C       -1.733394864     4.327425162    -0.000357727
 C       -2.527240351     3.235286748     0.374920740
 C       -2.008368572     1.943501628     0.373757240
 C       -2.323133426     5.661903655     0.018437922
 C       -1.675007376     6.790729077    -0.315613751
 C       -2.266706541     8.124439965    -0.296127222
 C       -3.592738088     8.354447251     0.080679599
 C       -4.118659645     9.645962363     0.085192095
 C       -3.331970654    10.735048909    -0.303434832
 C       -2.002865519    10.507392728    -0.684211487
 C       -1.477140301     9.218258991    -0.674880833
Si       -4.002769467    12.447772965    -0.305950337
 C       -3.264212919    13.473456186    -1.627006600
 C       -2.826436398    12.993282786    -2.798872152
 C       -2.235454452    13.815952604    -3.855270855
 C       -1.813469711    13.196349600    -5.040874132
 C       -1.248037424    13.928967892    -6.071070713
 C       -1.128579843    15.332627503    -5.968162540
 C       -1.552758890    15.955497604    -4.779348628
 C       -2.075134952    15.198617618    -3.737747096
 N       -0.552256855    16.058267226    -7.023614679
 C       -0.796136554    15.576607431    -8.395136696
 C       -0.517172029    17.521948649    -6.893839043
 C       -2.273469193    15.373672955    -8.772076766
 C       -3.028964162    16.676176383    -9.085554720
 N       -2.804570253    17.226689749   -10.433368104
 C       -3.074407479    16.397854901   -11.533116239
 C       -4.091430869    15.421604782   -11.446165804
 C       -4.366954320    14.597777374   -12.524805201
 C       -3.685782708    14.741780734   -13.742276540
 C       -2.701474345    15.728815242   -13.836497881
 C       -2.397915983    16.550977087   -12.758801553
 C       -1.645093579    18.124440636   -10.534596608
 C       -4.017132189    13.843759112   -14.849175508
 C       -3.433757329    13.887727780   -16.054711522
Si       -3.844516839    12.768002748   -17.440197768
 C       -4.410508337    11.118591400   -16.854559058
 C       -3.897852198    10.588709226   -15.662978578
 C       -4.316793120     9.341703286   -15.207262691
 C       -5.245794978     8.587089139   -15.935765815
 C       -5.748155363     9.114010243   -17.128719656
 C       -5.334181856    10.364822202   -17.585642480
 C       -5.654101638     7.285741919   -15.417237882
 C       -6.537411684     6.467127763   -16.013368815
 C       -6.945696711     5.165743057   -15.494776779
 C       -6.444096267     4.637965005   -14.302204457
 C       -6.862325328     3.388943894   -13.843305274
 C       -7.788094181     2.636493961   -14.572775799
 C       -8.291992617     3.163155390   -15.769814465
 C       -7.877050676     4.412548260   -16.222259924
Si       -8.349968110     0.986473097   -13.980537647
 C       -7.251911800     0.335529748   -12.620375819
 C      -10.129463584     1.124551909   -13.319122644
 C       -8.346841080    -0.212630355   -15.458970153
 C       -5.193703715    13.581632023   -18.507003919
 C       -2.284239616    12.535057891   -18.503513093
 C       -5.890675681    12.414767155    -0.540334192
 C       -3.610039670    13.257084912     1.370504158
 C       -0.620654226    -0.915249676    -1.549236031
 C       -0.653571350    -0.912010876     1.538032362
 H        1.157920642     2.679477259    -0.683459706
 H        0.230422994     4.923646569    -0.672197654
 H       -3.562251857     3.395592289     0.670896774
 H       -2.675599519     1.131493891     0.676071847
 H       -3.370100372     5.694326491     0.334103728
 H       -0.628085166     6.758981322    -0.631274187
 H       -4.227971115     7.522474643     0.378505547
 H       -5.159920760     9.763316654     0.397417451
 H       -1.341324248    11.323067967    -0.995804153
 H       -0.441281717     9.061062254    -0.969818372
 H       -3.215688748    14.548484480    -1.396870135
 H       -2.872324376    11.925542149    -3.057328132
 H       -1.919422970    12.115885325    -5.151188045
 H       -0.895248552    13.414645245    -6.960645758
 H       -1.474255657    17.029984960    -4.654758138
 H       -2.380398240    15.704526376    -2.820533091
 H       -0.022039554    17.967642936    -7.772467660
 H        0.098078078    17.789287268    -6.013535667
 H       -1.512175932    17.982499405    -6.779522486
 H       -1.535226534    18.710835312    -9.607514010
 H       -1.823599142    18.850628831   -11.350494462
 H       -0.696097641    17.599573672   -10.732851396
 H       -4.663910524    15.306989580   -10.530023012
 H       -5.140250545    13.833915091   -12.427400063
 H       -2.156361075    15.863908898   -14.771969115
 H       -1.625545772    17.302903403   -12.878080354
 H       -4.798127240    13.113137986   -14.593860529
 H       -2.662548948    14.637358136   -16.288031697
 H       -3.165211291    11.131030470   -15.055514575
 H       -3.913313017     8.949606922   -14.275535707
 H       -6.470156762     8.548149442   -17.714235145
 H       -5.762175304    10.723258121   -18.525749061
 H       -5.179944308     7.000088814   -14.473558157
 H       -7.011435670     6.752295306   -16.957104702
 H       -5.719323574     5.201748321   -13.717580412
 H       -6.435302655     3.029444744   -12.902920764
 H       -9.017171202     2.619921559   -16.382208605
 H       -8.280821855     4.805402118   -17.153428871
 H       -0.306675871    16.271695884    -9.111670446
 H       -0.249864065    14.608014717    -8.506216519
 H       -2.331922222    14.688906019    -9.643386232
 H       -2.798395520    14.841096363    -7.951966265
 H       -4.127712756    16.504383381    -8.975630144
 H       -2.781808577    17.458181684    -8.334555717
 H        2.262894603    -1.029904054     0.037758571
 H        2.260236052     0.541120286     0.879109177
 H        2.275801058     0.481835285    -0.904432235
 H       -7.571257494    -0.671876864   -12.298779159
 H       -7.269839522     0.989566799   -11.730998356
 H       -6.203453229     0.257943124   -12.961291335
 H      -10.389203072     0.099035389   -12.926620574
 C      -10.250770729     2.125736388   -12.155661971
 C      -11.161356953     1.496226207   -14.398993766
 H       -9.069611112     0.220799655   -16.210077686
 C       -6.967668326    -0.310614372   -16.135750444
 C       -8.832209590    -1.628919626   -15.102264342
 H       -5.364150764    12.887435095   -19.379782777
 C       -6.524259505    13.733856812   -17.748368302
 C       -4.778450286    14.953893275   -19.066844388
 H       -1.984523986    13.566417926   -18.848514083
 C       -1.114379372    11.941338638   -17.698186541
 C       -2.525627622    11.665325690   -19.749443787
 H       -6.304119476    11.825379839     0.328295281
 C       -6.529911158    13.814598533    -0.510591006
 C       -6.304837967    11.705073053    -1.841849809
 H       -4.048295613    14.295570528     1.326618908
 C       -4.246102357    12.519142585     2.561268683
 C       -2.095573893    13.386974064     1.613375005
 H       -0.142861934    -1.936689306    -1.514095526
 C       -2.148056468    -1.103637583    -1.577820442
 C       -0.183576265    -0.228426597    -2.856087588
 H       -1.777884736    -0.922873767     1.437460675
 C       -0.176564478    -2.372172086     1.634610482
 C       -0.304940586    -0.182990579     2.848325303
 H       -9.603833121     1.884112835   -11.302525847
 H      -11.279883993     2.130812586   -11.768689990
 H      -10.030900510     3.159916297   -12.457687013
 H      -11.204169333     0.777106338   -15.226676355
 H      -10.991016239     2.494332858   -14.826707399
 H      -12.170253253     1.519882431   -13.961679799
 H       -6.577168622     0.662010395   -16.468043994
 H       -7.032866865    -0.938580401   -17.035669072
 H       -6.205584468    -0.770408343   -15.492634174
 H       -9.844672643    -1.647809673   -14.678689561
 H       -8.165659597    -2.145929292   -14.399294227
 H       -8.866498094    -2.252594600   -16.007439123
 H       -6.920576298    12.782944082   -17.365932979
 H       -7.295526819    14.142678396   -18.415998660
 H       -6.453614517    14.427274031   -16.897524663
 H       -3.874645349    14.916503987   -19.687966096
 H       -4.614987525    15.704079643   -18.280272661
 H       -5.575732916    15.353463922   -19.710111675
 H       -0.842468281    12.539408276   -16.817751886
 H       -0.213350436    11.888107332   -18.325449775
 H       -1.310016513    10.915204111   -17.354744344
 H       -3.287038315    12.074120223   -20.425790994
 H       -2.816516311    10.634252492   -19.501935266
 H       -1.600989923    11.588409214   -20.339643802
 H       -6.341221780    14.360922198     0.422247023
 H       -7.622592730    13.730080110    -0.600174880
 H       -6.202562876    14.450945671    -1.344743631
 H       -5.936623865    10.672117776    -1.912775419
 H       -5.968711332    12.236945824    -2.743822573
 H       -7.400260089    11.646810393    -1.908561546
 H       -5.341069297    12.468651480     2.508445694
 H       -4.008174186    13.042449700     3.498761556
 H       -3.869031265    11.493121833     2.680228195
 H       -1.574494348    13.952826230     0.829021877
 H       -1.593679692    12.413198009     1.709004998
 H       -1.908999462    13.921833626     2.555363225
 H       -2.532643753    -1.674607603    -0.723301261
 H       -2.440321919    -1.664884386    -2.477306150
 H       -2.695194541    -0.151174968    -1.621087666
 H        0.904941709    -0.126336050    -2.952706459
 H       -0.624538079     0.771048869    -2.981131694
 H       -0.514136104    -0.820417351    -3.721572204
 H       -0.448714391    -2.977582280     0.760447194
 H       -0.640697798    -2.861575055     2.503265737
 H        0.908680956    -2.459592806     1.777355986
 H       -0.663245626     0.856104898     2.875563770
 H        0.773142957    -0.166009908     3.056401691
 H       -0.776377028    -0.692799303     3.700561256

