187   

Si        0.000000000     0.000000000     0.000000000
 C        1.865406354     0.000000000     0.000000000
 C       -0.680055294     1.710583566     0.000000000
 C        0.143073446     2.816977986    -0.231592942
 C       -0.385714298     4.107743074    -0.228726063
 C       -1.747615904     4.321441870    -0.001419652
 C       -2.571839097     3.211394727     0.227785833
 C       -2.046492271     1.922359780     0.229319636
 C       -2.344727310     5.652781255     0.010740085
 C       -1.668718462     6.796658489    -0.190458660
 C       -2.266089183     8.127868889    -0.178243646
 C       -3.628621237     8.340203031     0.049271463
 C       -4.158185714     9.630157755     0.052333890
 C       -3.335956036    10.736411988    -0.184975227
 C       -1.969744200    10.526841514    -0.414228178
 C       -1.442390257     9.238353690    -0.405379685
Si       -4.012357559    12.446325854    -0.185722204
 C       -3.112730870    13.542042824    -1.340809874
 C       -2.521192345    13.122606625    -2.467279770
 C       -1.801020386    13.999647878    -3.391988114
 C       -1.222774424    13.438781190    -4.541707832
 C       -0.531343910    14.223635999    -5.447920479
 C       -0.429036680    15.617651330    -5.248645380
 C       -1.002242780    16.180494700    -4.096697265
 C       -1.656924618    15.371059063    -3.174458116
 N        0.285925798    16.376218871    -6.199525657
 C       -0.084847633    16.156455951    -7.616431957
 C        0.528656449    17.791483109    -5.876770593
 C       -1.574347098    15.886914976    -7.886250478
 C       -2.495438294    17.030350394    -7.421435932
 N       -3.872106622    16.580994451    -7.118507190
 C       -4.503344665    15.867429793    -8.166303917
 C       -4.497213643    16.430586515    -9.459466930
 C       -5.102700666    15.767140862   -10.513748498
 C       -5.769420337    14.548690425   -10.315165174
 C       -5.796345728    14.007669682    -9.027663719
 C       -5.180040357    14.653865942    -7.962170073
 C       -3.989865846    15.993041333    -5.772092328
 C       -6.392854645    13.888329712   -11.464086456
 C       -7.053551577    12.725618379   -11.391936457
Si       -7.850483805    11.855068767   -12.786995493
 C       -9.575905126    11.405742727   -12.335228438
 C      -10.244423312    12.101902999   -11.322666401
 C      -11.552519501    11.764173872   -10.977358285
 C      -12.223246385    10.733753309   -11.641700116
 C      -11.553165673    10.042634217   -12.660108059
 C      -10.245502470    10.374079118   -13.004902745
 C      -13.591351116    10.345745258   -11.314693574
 C      -14.344709832    10.923623896   -10.363671573
 C      -15.712777097    10.534696538   -10.037579735
 C      -16.380930022     9.501603670   -10.699535326
 C      -17.689528591     9.162577917   -10.355481256
 C      -18.361642389     9.856159240    -9.344359935
 C      -17.693991054    10.893848520    -8.679397085
 C      -16.386110816    11.225876148    -9.021079214
Si      -20.088520875     9.421056538    -8.878515060
 C      -20.874953316     8.291097892   -10.137283849
 C      -20.088439642     8.546010722    -7.188048078
 C      -21.089407145    11.033088827    -8.725909501
 C       -7.880188887    12.934682769   -14.351954201
 C       -6.857780492    10.273477594   -13.154518394
 C       -5.847940803    12.426612069    -0.686925599
 C       -3.861725691    13.166239021     1.568026581
 C       -0.605689850    -0.926767114    -1.548569880
 C       -0.659598299    -0.899896829     1.542177475
 H        1.215758469     2.712833356    -0.416672681
 H        0.277272283     4.952242352    -0.407885442
 H       -3.635500315     3.355774909     0.407654612
 H       -2.737716934     1.095788846     0.417024708
 H       -3.421889599     5.669035397     0.201155606
 H       -0.591554048     6.780356025    -0.380873550
 H       -4.290425213     7.495057506     0.228950426
 H       -5.230094770     9.732921006     0.242074182
 H       -1.279227508    11.356132193    -0.602151495
 H       -0.377763004     9.095198388    -0.581137823
 H       -3.102006492    14.603344562    -1.049846318
 H       -2.525911264    12.069908232    -2.784670964
 H       -1.308491045    12.365544336    -4.719824173
 H       -0.055544002    13.767801039    -6.313096693
 H       -0.940416978    17.247522439    -3.909432063
 H       -2.076872583    15.827365668    -2.276915168
 H        1.288995301    18.189358209    -6.572690494
 H        0.960035485    17.870842182    -4.862691021
 H       -0.365337860    18.432184091    -5.935512791
 H       -3.557209271    16.686143481    -5.029276045
 H       -3.476336344    15.023206020    -5.656118635
 H       -5.057089538    15.872307194    -5.517282351
 H       -4.015609671    17.389895532    -9.628874410
 H       -5.071909032    16.208923227   -11.509683271
 H       -6.307118109    13.060733865    -8.845795867
 H       -5.214465717    14.194367742    -6.978329387
 H       -6.269678942    14.445273509   -12.401934419
 H       -7.153123597    12.188260662   -10.433479721
 H       -9.770710239    12.921087975   -10.771239271
 H      -12.050496705    12.316319295   -10.182339391
 H      -12.058048936     9.237109338   -13.189485725
 H       -9.772878332     9.799882405   -13.806308275
 H      -13.988126451     9.520869887   -11.913712290
 H      -13.948422930    11.748861203    -9.764582044
 H      -15.882010304     8.948910342   -11.493467926
 H      -18.159186909     8.344326650   -10.908205834
 H      -18.169619642    11.471429283    -7.881680523
 H      -15.883618432    12.033799854    -8.492397592
 H        0.256708373    17.022923016    -8.223214135
 H        0.513013363    15.279575715    -7.966437984
 H       -1.723860766    15.702815534    -8.968176629
 H       -1.882734466    14.940500631    -7.396033140
 H       -2.089805583    17.521816423    -6.509925890
 H       -2.552966800    17.824371376    -8.198046227
 H        2.263014534    -1.029820038     0.042083602
 H        2.262375664     0.544453918     0.876009651
 H        2.274245061     0.477321706    -0.907814399
 H      -21.925686847     8.073292011    -9.874971843
 H      -20.343571753     7.326014593   -10.209536932
 H      -20.872958392     8.753643801   -11.141013467
 H      -21.161933466     8.256989689    -6.994946779
 C      -19.240831167     7.260543981    -7.189709405
 C      -19.620922109     9.442905724    -6.027814292
 H      -20.582330774    11.636616948    -7.917759180
 C      -21.065069174    11.865989190   -10.020327916
 C      -22.551497947    10.810242550    -8.300216605
 H       -6.813720118    13.260631980   -14.524617578
 C       -8.355067793    12.178474780   -15.605634700
 C       -8.746485224    14.195661316   -14.178374954
 H       -7.364876097     9.785472824   -14.036398956
 C       -5.396214141    10.557462956   -13.543202818
 C       -6.881409855     9.276929084   -11.981901073
 H       -6.376471400    11.792793674     0.082151672
 C       -6.494122113    13.823488359    -0.676304850
 C       -6.067382724    11.786907291    -2.069657657
 H       -4.297868273    14.205417305     1.518421049
 C       -4.651076470    12.365947285     2.618499958
 C       -2.396541168    13.283624590     2.025005950
 H       -0.097242203    -1.933717117    -1.517678557
 C       -2.126323262    -1.162780656    -1.575499317
 C       -0.193349545    -0.223562820    -2.854880064
 H       -1.784378533    -0.894045831     1.445400045
 C       -0.202656105    -2.366207465     1.640395314
 C       -0.296446624    -0.172289152     2.849331342
 H      -19.563355433     6.525778510    -7.938493231
 H      -19.316130610     6.758221338    -6.214629750
 H      -18.171016533     7.454857916    -7.353628048
 H      -20.228736509    10.348063542    -5.904035943
 H      -18.570331814     9.751417081    -6.123853939
 H      -19.692203506     8.894034122    -5.077407427
 H      -20.048366917    12.114818121   -10.357000735
 H      -21.578922150    12.824789325    -9.861577816
 H      -21.579237968    11.374785038   -10.856955218
 H      -22.650248400    10.279867276    -7.344302695
 H      -23.136647806    10.260891994    -9.049531025
 H      -23.055343541    11.778762363    -8.167420950
 H       -7.725225538    11.316584190   -15.859771798
 H       -8.327412176    12.845579144   -16.479519072
 H       -9.392888891    11.825367724   -15.525065667
 H       -8.448642265    14.820308154   -13.325029010
 H       -9.814865623    13.964537901   -14.057731409
 H       -8.668660721    14.833049047   -15.070238971
 H       -5.297911864    11.193848283   -14.432000100
 H       -4.880078953     9.616215324   -13.780301954
 H       -4.821349756    11.027375297   -12.732233739
 H       -7.897037837     8.993930256   -11.670972304
 H       -6.353636766     9.649224022   -11.093037075
 H       -6.378084313     8.343273607   -12.270527380
 H       -6.443844529    14.320217732     0.300902440
 H       -7.562678909    13.744221989    -0.923868392
 H       -6.056308566    14.502249766    -1.421768891
 H       -5.686540901    10.758486549    -2.140307219
 H       -5.609988338    12.365163101    -2.885830575
 H       -7.141954716    11.732259792    -2.294134427
 H       -5.727919198    12.318936443     2.412103451
 H       -4.548702171    12.838399613     3.606325843
 H       -4.286957866    11.334849500     2.734232275
 H       -1.776023996    13.890662891     1.351845630
 H       -1.905166693    12.306289926     2.138092719
 H       -2.346526675    13.767558741     3.010776049
 H       -2.495660324    -1.728607450    -0.710945066
 H       -2.398724687    -1.750214199    -2.464556425
 H       -2.701827439    -0.228634478    -1.639493414
 H        0.891315840    -0.088800580    -2.954972929
 H       -0.663492389     0.763107033    -2.975327927
 H       -0.509386789    -0.822384450    -3.721079524
 H       -0.488659611    -2.970227323     0.769658044
 H       -0.668242428    -2.846493740     2.513366441
 H        0.882093524    -2.468538079     1.776745761
 H       -0.643139220     0.870758734     2.875859317
 H        0.782537639    -0.167463610     3.052883094
 H       -0.770403727    -0.674734364     3.704593347

