187   

Si        0.000000000     0.000000000     0.000000000
 C        1.865239921     0.000000000     0.000000000
 C       -0.678413488     1.711369879     0.000000000
 C        0.131376379     2.808678985    -0.309574450
 C       -0.393375718     4.101007202    -0.306477362
 C       -1.738023984     4.325423029    -0.000043974
 C       -2.549241741     3.224449981     0.305933947
 C       -2.028153737     1.933589040     0.305110801
 C       -2.330263394     5.658957333     0.015537657
 C       -1.665196593     6.794588808    -0.256563732
 C       -2.257027734     8.128299836    -0.241098817
 C       -3.602486016     8.352006982     0.065600761
 C       -4.127243757     9.643712373     0.068759448
 C       -3.311504608    10.741246690    -0.225277957
 C       -1.962908060    10.521630088    -0.532844772
 C       -1.445137981     9.228954818    -0.544865995
Si       -3.989501854    12.451227007    -0.225020720
 C       -2.616019706    13.636674111    -0.004845560
 C       -2.379607455    14.714816093    -0.762873877
 C       -1.262398022    15.636392906    -0.544915064
 C       -1.114627274    16.735388720    -1.405806188
 C       -0.075478298    17.634930308    -1.241644699
 C        0.876027055    17.440739858    -0.217804368
 C        0.727567650    16.346908889     0.648717092
 C       -0.343566240    15.473173717     0.493398958
 N        1.917045141    18.390510062    -0.095064965
 C        2.708402391    18.621419547    -1.327229024
 C        2.744649617    18.301682307     1.119255367
 C        2.909372063    17.400025600    -2.239220052
 C        3.663259967    16.248491942    -1.549551648
 N        3.463029052    14.944864226    -2.209548272
 C        3.870108073    14.841875478    -3.552488538
 C        5.000228093    15.558486489    -4.002119623
 C        5.410942863    15.465337259    -5.321867408
 C        4.751397594    14.624640211    -6.229834444
 C        3.652566801    13.891128231    -5.774818238
 C        3.217166720    13.985301457    -4.459473397
 C        2.179078066    14.315209283    -1.855710783
 C        5.226945819    14.564328161    -7.612577923
 C        4.676481676    13.799045472    -8.564885570
Si        5.266029146    13.719609659   -10.293365584
 C        7.074656845    14.029011792   -10.424600496
 C        7.925068095    13.645402516    -9.381051908
 C        9.297671040    13.873045003    -9.465673103
 C        9.853336579    14.474362658   -10.598716843
 C        9.001534292    14.848608866   -11.646039615
 C        7.628973087    14.627204846   -11.562521578
 C       11.283531003    14.731932500   -10.730860504
 C       12.204992246    14.423050410    -9.802691372
 C       13.635324774    14.680089385    -9.933661827
 C       14.192499101    15.285494488   -11.062960530
 C       15.566325951    15.512396512   -11.146113486
 C       16.413085807    15.143702529   -10.096083794
 C       15.856554454    14.536886120    -8.961840151
 C       14.485913895    14.306503164    -8.884310230
Si       18.228139967    15.436084110   -10.189931056
 C       18.668691795    16.567645215   -11.606127007
 C       18.795161338    16.196328195    -8.539377291
 C       19.126731816    13.775667324   -10.432680704
 C        4.895567916    11.980598325   -10.970259526
 C        4.305983882    14.994791945   -11.328963369
 C       -4.909424726    12.756088953    -1.860637127
 C       -5.213711449    12.657134227     1.215686543
 C       -0.614520485    -0.921024598    -1.548174345
 C       -0.655906249    -0.905126608     1.540949058
 H        1.190546816     2.696049040    -0.557297430
 H        0.259026391     4.938317036    -0.547726223
 H       -3.599487079     3.377134724     0.547182578
 H       -2.709074370     1.114233047     0.552233427
 H       -3.393330263     5.684264060     0.272306796
 H       -0.602106022     6.768967997    -0.513671035
 H       -4.254620479     7.513899379     0.304113577
 H       -5.187266510     9.756686309     0.312031011
 H       -1.281017519    11.344004184    -0.773601495
 H       -0.395856235     9.075429924    -0.790386747
 H       -1.967026099    13.391006322     0.852931287
 H       -3.009967741    14.992568543    -1.617420310
 H       -1.833446657    16.890604747    -2.211131279
 H        0.008809710    18.500385177    -1.895156107
 H        1.438509413    16.171497019     1.450132969
 H       -0.449970999    14.639909144     1.190098140
 H        3.363671735    19.213375559     1.195117892
 H        3.408855778    17.424535010     1.157490627
 H        2.089255604    18.291041764     2.008896394
 H        1.950062215    14.490610625    -0.789387612
 H        2.262003702    13.221980794    -1.991881899
 H        1.324832114    14.690185642    -2.443763707
 H        5.554142911    16.192425139    -3.316203972
 H        6.272965652    16.045817180    -5.653509731
 H        3.121817302    13.227885790    -6.459394441
 H        2.359003281    13.397530713    -4.149093879
 H        6.096467098    15.210746216    -7.799185659
 H        3.799991887    13.167976709    -8.353111524
 H        7.547519170    13.164085900    -8.472098092
 H        9.937106696    13.572688731    -8.637497598
 H        9.413978595    15.317191991   -12.537360871
 H        7.014869059    14.940014182   -12.411178034
 H       11.577466638    15.211377421   -11.669090596
 H       11.910698076    13.942601969    -8.864870164
 H       13.554829869    15.585436516   -11.892475616
 H       15.943602982    15.988403089   -12.055417407
 H       16.469332199    14.228070931    -8.110136171
 H       14.072370220    13.832115843    -7.996314687
 H        2.169677532    19.416216446    -1.899068832
 H        3.694868576    19.054430710    -1.053853140
 H        1.928511793    17.033195127    -2.604767980
 H        3.452388907    17.709441277    -3.154064458
 H        4.754510833    16.462006385    -1.508936485
 H        3.336407999    16.145432058    -0.489878265
 H        2.262980819    -1.029434502     0.049956102
 H        2.261236482     0.551262355     0.872295709
 H        2.275144069     0.470673748    -0.910756022
 H       19.753550208    16.774759307   -11.627536044
 H       18.147625333    17.537934836   -11.514571105
 H       18.394931189    16.128339337   -12.581316232
 H       18.538318566    15.436788275    -7.744691131
 C       20.310702193    16.455337373    -8.471156891
 C       18.047512125    17.499466233    -8.203687459
 H       20.219596274    14.034214782   -10.542407992
 C       18.982454253    12.814156153    -9.239561031
 C       18.678326781    13.044581958   -11.711407684
 H        3.779651169    11.841780697   -10.880363025
 C        5.280837527    11.812690511   -12.450308013
 C        5.582538636    10.876947846   -10.145994846
 H        4.653051663    14.859553348   -12.393799735
 C        2.782434165    14.778481767   -11.295943460
 C        4.613995861    16.441941952   -10.904415472
 H       -5.207644791    13.844460803    -1.851738818
 C       -4.014676936    12.512906952    -3.090053576
 C       -6.188754946    11.913237769    -2.006559704
 H       -6.047792917    11.922082960     1.021488114
 C       -4.585474496    12.312979296     2.577884216
 C       -5.827951806    14.066072977     1.286992199
 H       -0.121053069    -1.935250479    -1.515860779
 C       -2.138768505    -1.133255115    -1.573847327
 C       -0.191544848    -0.225777728    -2.855246528
 H       -1.780651472    -0.905388715     1.444401067
 C       -0.191739258    -2.369350508     1.637092944
 C       -0.296238603    -0.177716041     2.849172576
 H       20.913543735    15.551555115    -8.628259937
 H       20.581850558    16.836051345    -7.475613656
 H       20.648842770    17.212378832    -9.191074915
 H       16.954999633    17.378404715    -8.178057331
 H       18.273271678    18.316149537    -8.902095652
 H       18.340110963    17.855974421    -7.205769777
 H       19.355842303    13.230964331    -8.295650916
 H       19.565547746    11.899631582    -9.422129771
 H       17.945466819    12.487344706    -9.078323762
 H       18.827430538    13.632807807   -12.625973794
 H       17.622364838    12.739370312   -11.680763907
 H       19.261180186    12.121473586   -11.841828920
 H        4.754399041    12.505318819   -13.119114416
 H        5.023460025    10.800130774   -12.793422141
 H        6.359500698    11.930157141   -12.627996970
 H        5.312566690    10.895421593    -9.081132072
 H        6.679536588    10.915938007   -10.210655411
 H        5.288207250     9.886815092   -10.521578674
 H        2.474420236    13.789380683   -11.657926643
 H        2.284916624    15.511457671   -11.947177985
 H        2.353171604    14.917910351   -10.293761849
 H        5.682195946    16.694571341   -10.956235020
 H        4.270811252    16.669449498    -9.884640967
 H        4.097573309    17.148784687   -11.568690455
 H       -3.090945117    13.107511793    -3.087644313
 H       -4.554094467    12.783299851    -4.008717100
 H       -3.725220782    11.457984014    -3.203104172
 H       -6.929516328    12.105222981    -1.219899860
 H       -5.990076909    10.832281477    -2.025822372
 H       -6.686508357    12.148100279    -2.958827874
 H       -4.159025452    11.300661086     2.618041578
 H       -5.350494423    12.354402046     3.366421919
 H       -3.797374863    13.017688458     2.876596328
 H       -6.370250771    14.351677483     0.376417103
 H       -5.082592288    14.848609989     1.489487966
 H       -6.557704210    14.117565447     2.107784125
 H       -2.514542554    -1.701632659    -0.713716857
 H       -2.422471595    -1.707863297    -2.467695919
 H       -2.700218129    -0.189793619    -1.626833632
 H        0.895013644    -0.106721875    -2.954867540
 H       -0.647804364     0.767126061    -2.977683017
 H       -0.515427504    -0.821509154    -3.720708393
 H       -0.474638141    -2.973495164     0.765426755
 H       -0.655136958    -2.853237271     2.509236243
 H        0.893477191    -2.466626871     1.773541520
 H       -0.647135298     0.863863128     2.877078361
 H        0.782771466    -0.168498300     3.052757939
 H       -0.767901686    -0.683373285     3.703779289

