187   

Si        0.000000000     0.000000000     0.000000000
 C        1.865562355     0.000000000     0.000000000
 C       -0.663754264     1.716577455     0.000000000
 C        0.139067826     2.797825311     0.377001193
 C       -0.371769777     4.095798548     0.374238691
 C       -1.692719314     4.342290416    -0.008124353
 C       -2.497609075     3.256810236    -0.379743558
 C       -1.993602252     1.959164110    -0.368889750
 C       -2.269314374     5.681852526    -0.026383666
 C       -1.608981206     6.801290279     0.314688862
 C       -2.184599838     8.141517750     0.296814449
 C       -3.506191474     8.388809706    -0.085652379
 C       -4.016189050     9.686107111    -0.088234357
 C       -3.221511875    10.764065190     0.317404632
 C       -1.899416286    10.517138080     0.707265885
 C       -1.386618488     9.222504693     0.691021017
Si       -3.900631123    12.481300892     0.312636706
 C       -2.565274747    13.591503900     0.897642376
 C       -2.666006912    14.518560143     1.859799622
 C       -1.567412321    15.385215051     2.294584621
 C       -1.795636841    16.318653781     3.312765060
 C       -0.789928524    17.164266006     3.762788598
 C        0.520108895    17.045331406     3.257866080
 C        0.755623135    16.091132954     2.243821534
 C       -0.275588844    15.298746646     1.764336881
 N        1.575316473    17.879774672     3.682843487
 C        1.312023277    18.709939446     4.879918357
 C        2.899403343    17.230016401     3.641980309
 C        2.433204835    19.703239573     5.242461208
 C        2.271852936    21.100304820     4.606173467
 N        2.857149630    21.277927891     3.263409525
 C        2.174586088    20.594285472     2.221814743
 C        0.801629369    20.868233312     2.059947967
 C        0.082779890    20.233265970     1.062650853
 C        0.709499621    19.341503057     0.178863264
 C        2.077320030    19.103745540     0.319092403
 C        2.814281155    19.736056894     1.315540807
 C        4.325087455    21.166241777     3.258418782
 C       -0.107985369    18.704563126    -0.851981786
 C        0.349555736    17.835182573    -1.762055603
Si       -0.702747497    17.058549070    -3.036524423
 C       -0.449468945    15.236946395    -3.046230451
 C       -0.150065141    14.570263550    -1.851628931
 C        0.045102858    13.191116474    -1.839216503
 C       -0.082951106    12.441739480    -3.015685614
 C       -0.390799824    13.110521546    -4.205025948
 C       -0.567252436    14.492846035    -4.223942781
 C        0.127996482    10.997474028    -2.969508468
 C        0.046086071    10.199213284    -4.047123955
 C        0.246807474     8.755436715    -4.057395356
 C        0.556294774     8.016438644    -2.913697517
 C        0.736881220     6.634261087    -2.987834699
 C        0.643205178     5.969318627    -4.214349557
 C        0.341889581     6.711177046    -5.364878119
 C        0.140162403     8.084914146    -5.284270593
Si        0.874835465     4.149348810    -4.352566567
 C        1.519554800     3.418544293    -2.765855431
 C       -0.786421510     3.319497862    -4.770310508
 C        2.094289756     3.803576101    -5.773091748
 C       -2.539820839    17.376600006    -2.644787064
 C       -0.295240269    17.802690736    -4.736486415
 C       -4.514372445    12.846759926    -1.446703010
 C       -5.384879523    12.591022658     1.501715905
 C       -0.650410378    -0.886361504    -1.555339755
 C       -0.631425432    -0.927619151     1.534965209
 H        1.181049757     2.667207970     0.682121826
 H        0.273249070     4.920022414     0.673362500
 H       -3.531418828     3.426803643    -0.675177936
 H       -2.670077980     1.151833015    -0.662779836
 H       -3.312794959     5.727709816    -0.350727849
 H       -0.564231664     6.756059126     0.635430937
 H       -4.146991563     7.566449703    -0.397619161
 H       -5.050613677     9.818925191    -0.416805085
 H       -1.232796609    11.318052258     1.041263786
 H       -0.355475328     9.051934834     0.992877758
 H       -1.619077908    13.454359176     0.345870768
 H       -3.597915616    14.700713062     2.410362191
 H       -2.789761227    16.404297744     3.752458924
 H       -1.029827204    17.897560725     4.524760371
 H        1.742524135    15.995985705     1.800018020
 H       -0.062912759    14.578803644     0.971510598
 H        3.629657963    17.734612603     4.292326570
 H        3.285210600    17.301815401     2.606422941
 H        2.868148095    16.168842519     3.941912026
 H        4.741129685    21.833896582     4.031709993
 H        4.707216432    21.522113610     2.284264135
 H        4.705549235    20.148260009     3.434611335
 H        0.307880334    21.575115057     2.720873344
 H       -0.984248373    20.432624434     0.963417152
 H        2.582258100    18.415464786    -0.359017601
 H        3.874990994    19.528451999     1.400361856
 H       -1.160313184    19.021777923    -0.808435089
 H        1.407801125    17.536326452    -1.792485555
 H       -0.047619135    15.113897317    -0.904845436
 H        0.294326023    12.688995831    -0.906232004
 H       -0.492570835    12.553756136    -5.134685310
 H       -0.798302884    14.958086757    -5.185607119
 H        0.352162661    10.588685252    -1.981324179
 H       -0.188996808    10.624652982    -5.029144737
 H        0.639421097     8.513999538    -1.949308174
 H        0.954264859     6.102565195    -2.057258373
 H        0.255821164     6.245479180    -6.350525340
 H       -0.100758426     8.643335842    -6.186515229
 H        0.381804645    19.293433055     4.668998487
 H        1.104616380    18.062822471     5.763901064
 H        2.445283526    19.819758946     6.344592639
 H        3.428718915    19.294772471     4.985666826
 H        1.193912570    21.374783125     4.557064162
 H        2.746752621    21.861500051     5.268905677
 H        2.263621307    -1.028831103    -0.055754082
 H        2.275925199     0.464568198     0.913392930
 H        2.260999708     0.557255619    -0.869120569
 H        1.675684278     2.329102958    -2.859366189
 H        0.805425716     3.577414365    -1.934439432
 H        2.483411381     3.871963065    -2.476332228
 H       -0.590455373     2.208955703    -4.721576344
 C       -1.880585705     3.658962290    -3.744363291
 C       -1.314468493     3.645347582    -6.178812012
 H        1.615972696     4.226857938    -6.703421392
 C        3.446769021     4.512485375    -5.576991791
 C        2.343866889     2.303082360    -6.011176966
 H       -2.680155592    18.494824184    -2.687994273
 C       -3.493292719    16.735843847    -3.668801422
 C       -2.929171646    16.895378703    -1.236015445
 H       -0.995387586    17.309772821    -5.471263789
 C       -0.533954430    19.321890964    -4.802306283
 C        1.148459410    17.504473791    -5.180342487
 H       -5.199523079    11.980813224    -1.693781210
 C       -5.334851802    14.140706884    -1.576643890
 C       -3.385160977    12.857574177    -2.486680310
 H       -5.641126005    13.688771502     1.562016236
 C       -6.639991428    11.840252263     1.022389344
 C       -5.036203295    12.099285511     2.919032168
 H       -1.771911956    -0.935650743    -1.436475424
 C       -0.348609126    -0.109716921    -2.849433750
 C       -0.129457621    -2.327046031    -1.701026129
 H       -0.159002095    -1.951372633     1.491021443
 C       -0.195893715    -0.257085199     2.850845896
 C       -2.159849353    -1.109211854     1.556484776
 H       -1.607821174     3.389229092    -2.712889717
 H       -2.801855780     3.106982589    -3.974113506
 H       -2.149615060     4.725130658    -3.741858119
 H       -0.619359480     3.368782076    -6.981021887
 H       -1.569022845     4.707107956    -6.302512801
 H       -2.241513121     3.085626724    -6.369344222
 H        3.350978897     5.600779454    -5.454011991
 H        4.085260597     4.358493964    -6.458071005
 H        4.010002967     4.130599934    -4.715408931
 H        1.427143866     1.740321337    -6.229947387
 H        2.844429538     1.813617083    -5.165247942
 H        3.003140256     2.165629459    -6.880037130
 H       -3.324058162    17.074908586    -4.698060735
 H       -4.533875811    16.995541856    -3.427526090
 H       -3.444812235    15.636288215    -3.665573839
 H       -2.346318514    17.357026759    -0.426235370
 H       -2.825324227    15.805661916    -1.111756035
 H       -3.980066960    17.138931738    -1.028778980
 H       -1.571844325    19.608665253    -4.589730316
 H       -0.313344556    19.694577890    -5.812563990
 H        0.114609183    19.887101957    -4.117435593
 H        1.388844125    16.432365562    -5.195126832
 H        1.899184131    18.003710762    -4.552075683
 H        1.311603996    17.869769871    -6.204078220
 H       -6.205173609    14.178545907    -0.910459724
 H       -5.724646732    14.235429776    -2.600262555
 H       -4.736410669    15.044375678    -1.394166004
 H       -2.796399289    11.927999347    -2.505740369
 H       -2.675272225    13.687372641    -2.346212827
 H       -3.798072412    12.974988056    -3.497858853
 H       -6.982606059    12.147510421     0.026226675
 H       -7.477392725    12.035304084     1.707783478
 H       -6.505492320    10.750082028     1.010425928
 H       -4.176092716    12.616691360     3.365848391
 H       -4.820688990    11.021684340     2.953859664
 H       -5.884530889    12.266185509     3.596867531
 H       -0.754410285     0.913670498    -2.841576703
 H       -0.808319980    -0.615248768    -3.710188210
 H        0.724756132    -0.039161091    -3.069498633
 H       -0.365230616    -2.965134045    -0.839781883
 H        0.955062907    -2.375847825    -1.865931123
 H       -0.594405663    -2.807772255    -2.574041527
 H        0.892687262    -0.161165924     2.952732899
 H       -0.532460424    -0.857071469     3.708609600
 H       -0.632880856     0.742883470     2.985330235
 H       -2.544837879    -1.666095488     0.692914375
 H       -2.702645578    -0.154940319     1.612125319
 H       -2.457388298    -1.682306287     2.446806859

