187   

Si        0.000000000     0.000000000     0.000000000
 C        1.865218979     0.000000000     0.000000000
 C       -0.683766464     1.708922677     0.000000000
 C        0.121440620     2.811341918     0.302902020
 C       -0.410416840     4.100879029     0.299039214
 C       -1.757737622     4.317138578    -0.001064833
 C       -2.564291651     3.210879536    -0.300607272
 C       -2.036107862     1.923058642    -0.299677993
 C       -2.358618091     5.646616030    -0.017555101
 C       -1.701742250     6.788689794     0.247487045
 C       -2.306812599     8.116560449     0.229846589
 C       -3.656089628     8.324273038    -0.071536516
 C       -4.194802101     9.609891984    -0.077403837
 C       -3.390320539    10.718256581     0.209243383
 C       -2.038330271    10.514409163     0.511024536
 C       -1.505885338     9.227409117     0.524793685
Si       -4.098275644    12.416163868     0.202303286
 C       -2.760583780    13.648744861     0.031446506
 C       -2.582528675    14.726900162     0.806174400
 C       -1.494364377    15.690564437     0.633167621
 C       -1.409562983    16.783369729     1.507550865
 C       -0.399154117    17.723340143     1.386309474
 C        0.603420261    17.573145787     0.403630414
 C        0.519111239    16.475049367    -0.474332815
 C       -0.527266875    15.568454339    -0.368346677
 N        1.624828359    18.531727149     0.287741644
 C        2.058180343    19.210777492     1.521867413
 C        2.744484952    18.207441127    -0.612896316
 C        2.669890234    18.250927883     2.558105587
 C        3.477827362    18.976656764     3.646874724
 N        4.628376171    19.783042967     3.173822877
 C        5.299438963    19.258558960     2.043173938
 C        5.798966964    17.942027834     2.127952297
 C        6.463544658    17.379069023     1.051787374
 C        6.677258088    18.108762684    -0.128121398
 C        6.203021647    19.420152517    -0.197372541
 C        5.532215643    19.999556521     0.874415745
 C        4.355647911    21.229780730     3.159314168
 C        7.385907647    17.467009458    -1.237691865
 C        7.642880924    18.070003401    -2.405200715
Si        8.519425743    17.332270353    -3.828986392
 C        7.517236409    17.603000487    -5.347369422
 C        6.128762520    17.758017179    -5.244765508
 C        5.357287923    17.963617014    -6.385475982
 C        5.950322875    18.007191171    -7.654184189
 C        7.335189777    17.844728926    -7.752721779
 C        8.111967350    17.643305876    -6.612345163
 C        5.098982609    18.225242926    -8.818992234
 C        5.538629644    18.292943566   -10.087041783
 C        4.686095494    18.511062734   -11.251011624
 C        3.301893385    18.673372292   -11.151746812
 C        2.524399593    18.879810466   -12.291216228
 C        3.117190084    18.935919180   -13.556435644
 C        4.505713241    18.774771498   -13.658595756
 C        5.278294728    18.562894240   -12.520164146
Si        2.105887357    19.207629849   -15.070473390
 C        0.366674752    19.734278292   -14.649199101
 C        2.960869095    20.541911400   -16.125106556
 C        2.026301785    17.595907368   -16.080071307
 C       10.212932444    18.179435728    -4.006330330
 C        8.789858736    15.466017317    -3.589685850
 C       -5.279079703    12.598882349    -1.279312689
 C       -5.085103733    12.686113918     1.805367065
 C       -0.653331064    -0.905564058    -1.542044662
 C       -0.613388204    -0.924182686     1.546986864
 H        1.182317736     2.704862717     0.545514545
 H        0.238337569     4.942527910     0.534733854
 H       -3.616470285     3.357255980    -0.537288784
 H       -2.713707783     1.099610308    -0.542298388
 H       -3.423165246     5.663301251    -0.269330719
 H       -0.637407337     6.773605369     0.499471256
 H       -4.300038188     7.478299473    -0.303880042
 H       -5.256939588     9.709795360    -0.317226825
 H       -1.365053795    11.345641174     0.745155538
 H       -0.453779038     9.086802947     0.765151543
 H       -2.079499926    13.435774690    -0.809568684
 H       -3.246760150    14.972254895     1.645141272
 H       -2.157975373    16.906051042     2.290945366
 H       -0.384677286    18.576694290     2.057490805
 H        1.263638852    16.326140452    -1.250144458
 H       -0.577841965    14.736667224    -1.073199893
 H        3.507152839    19.006381792    -0.578661852
 H        2.370856081    18.161804435    -1.651796563
 H        3.247841909    17.257707715    -0.367172472
 H        4.036376963    21.540530340     4.170118427
 H        3.585529427    21.543942733     2.438203528
 H        5.291031603    21.776676460     2.942522754
 H        5.662903703    17.375079149     3.046213135
 H        6.835468190    16.356824747     1.129046346
 H        6.361713828    20.010627139    -1.101503643
 H        5.179976073    21.022571448     0.784650126
 H        7.688467814    16.434683174    -1.020417024
 H        7.331772876    19.113193095    -2.586457409
 H        5.610941925    17.728225731    -4.280253052
 H        4.280376258    18.088504447    -6.287562069
 H        7.820292695    17.874149008    -8.726608244
 H        9.189843623    17.523491690    -6.751006992
 H        4.034194524    18.335346547    -8.592814220
 H        6.603046539    18.182580839   -10.313934944
 H        2.816025095    18.638168566   -10.178306911
 H        1.446340109    18.997754397   -12.150343521
 H        5.024022835    18.810267105   -14.621059389
 H        6.354830954    18.438151014   -12.619889058
 H        2.793933361    19.996208486     1.233018835
 H        1.190411027    19.755916725     1.954884850
 H        1.868518356    17.650727809     3.032182850
 H        3.312473638    17.509278060     2.041218392
 H        2.802999142    19.620260560     4.251568606
 H        3.897116118    18.218862160     4.352958150
 H        2.262784624    -1.029859829    -0.040321431
 H        2.275289756     0.479454721     0.906062250
 H        2.260926507     0.543035533    -0.877554653
 H       -0.219613500    19.938146319   -15.563012108
 H        0.367824195    20.658475490   -14.043170182
 H       -0.169113577    18.956381516   -14.077415708
 H        3.984272685    20.133313514   -16.370202078
 C        2.238658520    20.831149686   -17.452980289
 C        3.153103224    21.863819381   -15.359878727
 H        1.344305314    17.816902238   -16.951521170
 C        3.387597956    17.149678788   -16.642774105
 C        1.417206098    16.429178579   -15.281048463
 H       10.719787734    17.680858876    -4.882761757
 C       10.091549867    19.681543146    -4.318903257
 C       11.109902716    17.994647137    -2.769740849
 H        9.319249863    15.352098476    -2.599605735
 C        7.464702333    14.685125634    -3.519152638
 C        9.676518057    14.837148796    -4.679250334
 H       -6.099302383    11.840983320    -1.118826967
 C       -5.927279383    13.991811260    -1.363677218
 C       -4.594775889    12.280727221    -2.620691189
 H       -5.407984243    13.767420117     1.791630058
 C       -6.349919968    11.814106559     1.899694974
 C       -4.231507026    12.455085830     3.065941780
 H       -1.778048633    -0.909455551    -1.445361082
 C       -0.296063051    -0.175536711    -2.849419230
 C       -0.184513031    -2.368206061    -1.639885115
 H       -0.119123493    -1.937914918     1.512587066
 C       -0.190479119    -0.230661556     2.855036394
 C       -2.137401928    -1.138035396     1.573186854
 H        2.128873061    19.944246596   -18.090331055
 H        2.812664153    21.562314377   -18.040761118
 H        1.240825337    21.267277586   -17.311900182
 H        3.714237987    21.744450265   -14.421949900
 H        2.204724350    22.361122142   -15.116931234
 H        3.726841122    22.574010770   -15.972277095
 H        3.858192956    17.898642115   -17.292128192
 H        3.261087426    16.247159184   -17.258523562
 H        4.107554795    16.883439131   -15.856124417
 H        0.403553424    16.634019974   -14.913182286
 H        2.031546906    16.136114555   -14.417449396
 H        1.337749480    15.536877968   -15.918471567
 H        9.494484792    19.893501560    -5.217076308
 H       11.087188267    20.109171062    -4.504915777
 H        9.659503654    20.258015086    -3.489415756
 H       11.316342578    16.942549307    -2.534555505
 H       10.694743562    18.462481246    -1.865500189
 H       12.087262680    18.468883377    -2.939407518
 H        6.782070028    15.044522280    -2.737223491
 H        7.661749362    13.627179941    -3.295242510
 H        6.911652957    14.699755113    -4.469642911
 H       10.684796402    15.268295116    -4.723194835
 H        9.236231403    14.907692629    -5.684045669
 H        9.811321352    13.763777397    -4.480655558
 H       -6.512721462    14.254276778    -0.473203914
 H       -6.624193285    14.032145336    -2.212864950
 H       -5.194877888    14.795283619    -1.528882367
 H       -4.141883276    11.279686417    -2.651978993
 H       -3.814263990    13.007112404    -2.885960527
 H       -5.331821672    12.309094256    -3.435701992
 H       -7.062566378    11.990110571     1.084003092
 H       -6.890550088    12.036452464     2.831194258
 H       -6.127036998    10.738146494     1.926502827
 H       -3.323279346    13.072138825     3.101434330
 H       -3.919850489    11.406916929     3.182102365
 H       -4.811008733    12.705304830     3.965497474
 H       -0.650481797     0.864936661    -2.876051565
 H       -0.766012444    -0.681633924    -3.704665764
 H        0.782872137    -0.162451125    -3.052968610
 H       -0.468527840    -2.975011306    -0.770443885
 H        0.901376222    -2.462026681    -1.773095328
 H       -0.643634068    -2.851422119    -2.514626093
 H        0.896058731    -0.111848990     2.954800742
 H       -0.514678394    -0.827524323     3.719590252
 H       -0.646680507     0.762171257     2.978571146
 H       -2.513278206    -1.703389562     0.711145213
 H       -2.699574479    -0.195192537     1.630178924
 H       -2.419861960    -1.716336404     2.465020414

