187   

Si        0.000000000     0.000000000     0.000000000
 C        1.865142093     0.000000000     0.000000000
 C       -0.685917167     1.708010311     0.000000000
 C        0.114536609     2.811004594    -0.313092453
 C       -0.419882642     4.099587188    -0.308827065
 C       -1.765280477     4.313987084     0.000979624
 C       -2.567248411     3.206971010     0.310189747
 C       -2.036458645     1.920310062     0.309201713
 C       -2.369625560     5.641739174     0.018580307
 C       -1.719456141     6.785755666    -0.254295211
 C       -2.331871304     8.110236817    -0.234386376
 C       -1.541033342     9.225554008    -0.539033647
 C       -2.084298635    10.508356550    -0.532021529
 C       -3.430810879    10.706961389    -0.205800150
 C       -4.222633658     9.593664603     0.100457271
 C       -3.679147968     8.310587575     0.080680149
Si       -4.184810388    12.385194697    -0.185482251
 C       -5.467891235    12.532635663     1.108495272
 C       -5.453102358    11.848804262     2.260806497
 C       -6.477175765    11.962942222     3.299634432
 C       -6.349133177    11.192287986     4.464027342
 C       -7.290187117    11.262326046     5.478267866
 C       -8.436841892    12.073584109     5.335688121
 C       -8.567855210    12.844587372     4.163869691
 C       -7.588981530    12.801061224     3.179946418
 N       -9.389103571    12.141961180     6.366745897
 C       -9.545270778    10.955871196     7.227094453
 C      -10.671799236    12.792196841     6.046693281
 C      -10.030985319     9.711215213     6.462962677
 C      -10.569362749     8.609651217     7.390954583
 N      -11.728913571     8.982458121     8.236055948
 C      -12.635259312     9.889807670     7.637159751
 C      -13.200173040     9.530143988     6.395590678
 C      -14.092703638    10.379768732     5.764629278
 C      -14.473584524    11.595355874     6.354323984
 C      -13.931014002    11.934750346     7.595316373
 C      -13.031686092    11.092857493     8.241066072
 C      -11.364387585     9.250443955     9.637045794
 C      -15.421057959    12.457996347     5.644962241
 C      -15.851534228    13.635856422     6.114066770
Si      -17.029474567    14.759499613     5.283684318
 C      -16.316079277    16.454681558     5.260410271
 C      -14.928474091    16.626175396     5.317890300
 C      -14.373116812    17.904768540     5.301121736
 C      -15.188794721    19.036488015     5.213944149
 C      -16.577459180    18.860741243     5.149063151
 C      -17.136442149    17.585367672     5.170809310
 C      -14.650970999    20.392887336     5.193314930
 C      -13.343313246    20.697618382     5.249465928
 C      -12.803697396    22.053189193     5.228957923
 C      -13.616024402    23.186941904     5.147085984
 C      -13.057156056    24.464918300     5.130319926
 C      -11.670534523    24.635850262     5.187922252
 C      -10.853505464    23.499836455     5.268830375
 C      -11.414289454    22.226049018     5.291284066
Si      -10.916338130    26.315123647     5.166796457
 C      -12.166031467    27.623670909     4.713160237
 C      -10.209583938    26.717799860     6.887790999
 C       -9.486438409    26.307243763     3.910242931
 C      -17.376299651    14.207275030     3.498146050
 C      -18.664439571    14.754924497     6.255088541
 C       -2.849381003    13.706343558     0.115675231
 C       -4.996230418    12.711684342    -1.874834608
 C       -0.612838037    -0.922563186    -1.548271890
 C       -0.653056209    -0.908372323     1.540583800
 H        1.173599827     2.705747779    -0.563977912
 H        0.225164011     4.941866458    -0.552198280
 H       -3.617979423     3.351935424     0.554106173
 H       -2.710621864     1.096286843     0.559428831
 H       -3.432554310     5.655398213     0.278168531
 H       -0.657303532     6.774961119    -0.514603377
 H       -0.490096793     9.091595233    -0.787303538
 H       -1.420252886    11.339264068    -0.784733052
 H       -5.282370542     9.689407394     0.361584776
 H       -4.316800627     7.461088183     0.318178809
 H       -6.267829182    13.253192964     0.882003215
 H       -4.659945372    11.130473830     2.514122723
 H       -5.486608615    10.534905306     4.582873474
 H       -7.137871037    10.681716999     6.382940166
 H       -9.428470498    13.489434316     4.017561005
 H       -7.706558997    13.422408386     2.290907962
 H      -11.365034893    12.718148393     6.903911238
 H      -11.179924584    12.356033030     5.170769628
 H      -10.496008918    13.867900366     5.865236973
 H      -10.841035311     8.366018480    10.042316917
 H      -12.283784156     9.374778119    10.237251540
 H      -10.722904821    10.133015428     9.783453240
 H      -12.933768695     8.578583026     5.940909581
 H      -14.513325134    10.092411655     4.800460500
 H      -14.216023129    12.871421858     8.077659224
 H      -12.632289733    11.388991806     9.206234271
 H      -15.747610032    12.044282740     4.682334885
 H      -15.509762987    14.017544531     7.091514792
 H      -14.240280890    15.776610727     5.382111990
 H      -13.291319049    18.014001197     5.353791823
 H      -17.229699731    19.729273419     5.080802481
 H      -18.225827082    17.508958627     5.118838433
 H      -15.404535429    21.182985201     5.126622803
 H      -12.590055930    19.906867056     5.315876322
 H      -14.698121018    23.081262847     5.096667051
 H      -13.743875803    25.313510061     5.066835991
 H       -9.763075308    23.572276357     5.315286512
 H      -10.763608482    21.355880676     5.356056189
 H       -8.576476179    10.752669178     7.735388168
 H      -10.261341222    11.220828061     8.038685193
 H      -10.811883163    10.006982887     5.732992943
 H       -9.206387742     9.303098882     5.845920049
 H      -10.901558743     7.742202305     6.770032024
 H       -9.750980435     8.228213052     8.039094638
 H        2.262454835    -1.029492621     0.051481274
 H        2.261271113     0.552595889     0.871368521
 H        2.275090994     0.469426222    -0.911356703
 H      -11.696708878    28.622614849     4.665721995
 H      -12.987855717    27.677162828     5.448512974
 H      -12.611695707    27.419597171     3.722690878
 H       -9.823415216    27.775773824     6.817611294
 C      -11.283339031    26.673291003     7.990477258
 C       -9.038333103    25.810383303     7.304369259
 H       -8.756300879    25.528550687     4.277764996
 C       -9.944299595    25.893739384     2.499872562
 C       -8.739110030    27.649688919     3.821767555
 H      -17.716670672    13.133388497     3.564889981
 C      -18.493173665    15.019066494     2.818021821
 C      -16.118159133    14.259260982     2.612087415
 H      -19.359570063    15.446868841     5.696821448
 C      -19.323796964    13.366022654     6.316539577
 C      -18.502076700    15.297737964     7.686143573
 H       -2.108846546    13.601323748    -0.728862055
 C       -3.400587726    15.143153976     0.087155869
 C       -2.099602291    13.486338592     1.441900786
 H       -5.429204819    13.751836460    -1.816919889
 C       -3.996124210    12.673975733    -3.043428123
 C       -6.146032547    11.731350396    -2.168629696
 H       -0.118449732    -1.936268721    -1.514949163
 C       -2.136829668    -1.136498651    -1.574677548
 C       -0.189941973    -0.227621748    -2.855506717
 H       -1.777630202    -0.914733377     1.442551347
 C       -0.181257531    -2.370096925     1.637878878
 C       -0.298833297    -0.178635352     2.849005879
 H      -12.122500157    27.357612322     7.811176563
 H      -10.845684082    26.970241415     8.954449554
 H      -11.700876917    25.667063312     8.139445371
 H       -8.194524214    25.836790591     6.603380928
 H       -9.337589245    24.760761746     7.433963236
 H       -8.638995884    26.136119313     8.276088622
 H      -10.437737873    24.911539658     2.474725947
 H       -9.076882199    25.818279470     1.828679444
 H      -10.628349144    26.619236432     2.040140211
 H       -8.317284634    27.976722742     4.780962052
 H       -9.366392564    28.464573929     3.436827738
 H       -7.890783619    27.561600917     3.127376805
 H      -19.459849086    14.946772099     3.332531295
 H      -18.661329365    14.644778462     1.797581225
 H      -18.245856654    16.085116157     2.714187716
 H      -15.278007468    13.670330509     3.004460585
 H      -15.753461445    15.284247907     2.451212170
 H      -16.341572880    13.853141814     1.615474632
 H      -19.551706272    12.947653531     5.327714411
 H      -20.282116768    13.427738048     6.852042606
 H      -18.716499808    12.626857324     6.858486023
 H      -18.067772474    16.306757295     7.723722261
 H      -17.886995870    14.647503849     8.323269730
 H      -19.484019903    15.368398293     8.175583755
 H       -3.881772596    15.406788526    -0.863161981
 H       -2.580550839    15.862599033     0.225147445
 H       -4.120146954    15.340648336     0.894241597
 H       -1.627544328    12.497167604     1.519066821
 H       -2.746275769    13.611953126     2.322804333
 H       -1.290679063    14.222942948     1.545629168
 H       -3.191198685    13.414384808    -2.952488546
 H       -4.512718662    12.897056443    -3.988164570
 H       -3.529777589    11.687173612    -3.175969876
 H       -6.934070460    11.741068769    -1.403221118
 H       -5.803501832    10.692407512    -2.279406193
 H       -6.634162158    11.995956845    -3.117232244
 H       -2.511791159    -1.708075570    -0.716357155
 H       -2.419831119    -1.708534561    -2.470391983
 H       -2.699469171    -0.193534530    -1.624695408
 H        0.896504021    -0.107611691    -2.954741196
 H       -0.647145077     0.764820333    -2.978495359
 H       -0.513002614    -0.824029058    -3.720796631
 H       -0.459263589    -2.975856006     0.765774234
 H       -0.643721291    -2.856252823     2.509224657
 H        0.904196942    -2.461454435     1.776385239
 H       -0.655614081     0.860969709     2.876199127
 H        0.779906143    -0.163263602     3.053607091
 H       -0.768476013    -0.686748169     3.703228915

