187   

Si        0.000000000     0.000000000     0.000000000
 C        1.864230591     0.000000000     0.000000000
 C       -0.640901651     1.727387097     0.000000000
 C       -0.189288697     2.630022517     0.970844265
 C       -0.658032777     3.942420114     0.993293205
 C       -1.586849391     4.387404693     0.047479524
 C       -2.037855698     3.484426779    -0.922565715
 C       -1.571788358     2.171645142    -0.945264897
 C       -2.104129490     5.752169103     0.033879740
 C       -1.750500555     6.707122279     0.910540107
 C       -2.257571508     8.075075702     0.911048453
 C       -1.791220234     8.958521093     1.894452287
 C       -2.241802718    10.274258311     1.940926884
 C       -3.172510690    10.739714367     1.002199757
 C       -3.638010166     9.861275437     0.019180144
 C       -3.182704448     8.542975796    -0.025561273
Si       -3.753167321    12.483511985     1.084249557
 C       -5.226612892    12.741741713     0.034607053
 C       -5.374594416    13.722070604    -0.866422342
 C       -6.565165344    13.908984630    -1.696429286
 C       -6.597315801    14.976494140    -2.604542861
 C       -7.699126157    15.199629685    -3.414482295
 C       -8.799905831    14.316323326    -3.383413405
 C       -8.765760842    13.239676043    -2.473423491
 C       -7.674691028    13.060940551    -1.634351743
 N       -9.918580465    14.536397665    -4.200830449
 C       -9.733471426    15.319169099    -5.434692161
 C      -10.855700103    13.411442975    -4.361962503
 C       -8.796608285    14.641292648    -6.450816495
 C       -8.999943781    15.138156089    -7.892455473
 N      -10.357131898    14.965566339    -8.462515175
 C      -11.058306110    13.817201122    -8.035131232
 C      -10.402585184    12.569693820    -8.119232046
 C      -11.047984400    11.415640041    -7.712653298
 C      -12.377941586    11.450477019    -7.263495757
 C      -13.034696736    12.680596982    -7.213372098
 C      -12.392595077    13.853251242    -7.598584452
 C      -11.122669750    16.220979986    -8.528319357
 C      -13.004745387    10.196055140    -6.847108771
 C      -14.262658904    10.085133203    -6.399107893
Si      -14.987132656     8.481627153    -5.893094634
 C      -13.654802440     7.389934361    -5.244239948
 C      -12.644275976     7.964611487    -4.459383091
 C      -11.616687043     7.179410651    -3.947088076
 C      -11.576231266     5.800823814    -4.197068282
 C      -12.587749878     5.230082507    -4.973389811
 C      -13.618924553     6.015257931    -5.490667308
 C      -10.475869630     5.025561681    -3.635354077
 C      -10.305904951     3.701919983    -3.792443955
 C       -9.198365327     2.940894430    -3.223157468
 C       -8.198288386     3.536158742    -2.449342301
 C       -7.155954920     2.774708033    -1.922734043
 C       -7.095339764     1.396595126    -2.154490322
 C       -8.096094479     0.797289521    -2.930017228
 C       -9.132329480     1.561608143    -3.460131208
Si       -5.720316581     0.391057900    -1.460006611
 C       -4.847061972     1.302667891    -0.089744398
 C       -6.413800303    -1.257371177    -0.812039374
 C       -4.462880340     0.025061727    -2.843899819
 C      -16.271029909     8.789619596    -4.525830546
 C      -15.854043063     7.679038420    -7.381701195
 C       -4.222565803    12.887605196     2.884685099
 C       -2.337608224    13.636697586     0.547106768
 C       -0.664831428    -0.935291782    -1.521038283
 C       -0.626415082    -0.917694636     1.547641029
 H        0.541705335     2.344782170     1.733156741
 H       -0.290122169     4.622971090     1.758887352
 H       -2.758014010     3.810866177    -1.671487274
 H       -1.962812832     1.512424936    -1.727374903
 H       -2.824281263     5.963770395    -0.761621830
 H       -1.028840858     6.490138483     1.704472162
 H       -1.068805989     8.613999235     2.631880834
 H       -1.844485297    10.915899625     2.732715263
 H       -4.361907077    10.173578585    -0.740202535
 H       -3.557565584     7.877905830    -0.801193400
 H       -6.028939022    12.007466998     0.212825498
 H       -4.596162434    14.472673406    -1.059485938
 H       -5.746170264    15.655255481    -2.668492697
 H       -7.702124378    16.059184300    -4.077145523
 H       -9.596509682    12.543950766    -2.407816274
 H       -7.682979455    12.230267942    -0.926626268
 H      -11.635014436    13.658497459    -5.105187732
 H      -11.372101201    13.230180912    -3.402214578
 H      -10.368007372    12.478924840    -4.692695482
 H      -10.519253654    16.982419460    -9.053537869
 H      -11.419689396    16.625011537    -7.548062601
 H      -12.030326437    16.064464974    -9.139272491
 H       -9.388883840    12.519994507    -8.510292151
 H      -10.520338459    10.461449959    -7.762268508
 H      -14.069203209    12.732086771    -6.871447068
 H      -12.934639881    14.791558117    -7.541328573
 H      -12.327708410     9.331982798    -6.931535159
 H      -14.931970252    10.953446918    -6.330300929
 H      -12.625224884     9.035889289    -4.229668747
 H      -10.837535861     7.643406635    -3.344686458
 H      -12.579303271     4.161749050    -5.180742635
 H      -14.383712459     5.513177563    -6.088840980
 H       -9.760314552     5.610671474    -3.048997264
 H      -11.017896973     3.112310166    -4.376306786
 H       -8.225910164     4.605918745    -2.249527644
 H       -6.402985065     3.297083867    -1.324298176
 H       -8.099402074    -0.275028019    -3.143725324
 H       -9.899767258     1.078885255    -4.061981141
 H      -10.740957101    15.485885655    -5.880865677
 H       -9.355745276    16.330115606    -5.163213266
 H       -7.740945206    14.799998308    -6.155309811
 H       -8.937629704    13.541979871    -6.403273388
 H       -8.706015100    16.207892611    -7.963881322
 H       -8.304879172    14.581620424    -8.568117906
 H        2.265529444    -1.028621469     0.007656439
 H        2.272973322     0.526965768     0.879862746
 H        2.258640647     0.505193995    -0.900901441
 H       -4.045829319     0.684585814     0.356821768
 H       -5.548879290     1.570426187     0.720695285
 H       -4.373292949     2.236793737    -0.443801211
 H       -6.875302714    -1.770833800    -1.704851284
 C       -5.336774521    -2.193553274    -0.234417605
 C       -7.520142267    -1.059098354     0.239759442
 H       -3.541487669    -0.370644714    -2.324311296
 C       -4.934382104    -1.044406166    -3.845151543
 C       -4.067921642     1.289127393    -3.629263176
 H      -17.055661329     9.460913756    -4.980697790
 C      -16.962384018     7.500962492    -4.047732804
 C      -15.669774605     9.515669045    -3.308689934
 H      -16.262656111     6.694883611    -7.009978021
 C      -17.033415641     8.509370064    -7.919127377
 C      -14.881966097     7.388601341    -8.539405766
 H       -3.278696700    12.757739354     3.488928592
 C       -4.711700726    14.334724579     3.068413119
 C       -5.282046380    11.923227422     3.446931173
 H       -2.781389314    14.674072981     0.517018333
 C       -1.150026551    13.659579748     1.525725635
 C       -1.810377792    13.297097699    -0.859212779
 H       -1.783368841    -0.770794977    -1.514439398
 C       -0.110632617    -0.392225690    -2.850762963
 C       -0.419789744    -2.454373672    -1.471512347
 H       -0.197102491    -1.958712157     1.469657279
 C       -0.131259194    -0.301395977     2.868236253
 C       -2.159671141    -1.034822796     1.607462710
 H       -4.525796409    -2.413974361    -0.940623408
 H       -5.784772642    -3.161729685     0.031122823
 H       -4.884777254    -1.801847350     0.687474252
 H       -8.358802913    -0.447419812    -0.122074301
 H       -7.153163895    -0.599900468     1.167643584
 H       -7.949785373    -2.030016414     0.523930636
 H       -5.132596035    -2.018540983    -3.380623756
 H       -4.156575199    -1.218907862    -4.602684208
 H       -5.835850347    -0.746671092    -4.397830022
 H       -3.703316420     2.108188324    -2.995388055
 H       -4.896477390     1.688371529    -4.231988042
 H       -3.258056374     1.057477982    -4.335443096
 H      -17.493756129     6.968610449    -4.846993751
 H      -17.716860886     7.739538498    -3.284020093
 H      -16.266744839     6.790453793    -3.578293005
 H      -15.198593380    10.475271367    -3.560873275
 H      -14.924392646     8.908062174    -2.775339266
 H      -16.459287535     9.742059958    -2.577922257
 H      -17.816428045     8.690048853    -7.171737719
 H      -17.520206601     7.976335682    -8.748794863
 H      -16.722279550     9.483153157    -8.322283584
 H      -14.033858801     6.752368306    -8.251037166
 H      -14.468632318     8.303363763    -8.988963261
 H      -15.404615631     6.857429744    -9.347250963
 H       -3.971263197    15.086402664     2.766134401
 H       -4.930347210    14.526884682     4.128459500
 H       -5.641352582    14.544702626     2.519838293
 H       -4.983019977    10.867061860     3.390657438
 H       -6.256607472    12.020046519     2.949071778
 H       -5.457307676    12.135430724     4.511225389
 H       -1.426873883    13.970343045     2.541031902
 H       -0.394276170    14.380333253     1.180757516
 H       -0.635862606    12.690978292     1.596789074
 H       -2.589422115    13.298975496    -1.633924738
 H       -1.310918918    12.318292538    -0.901111812
 H       -1.061715500    14.038430420    -1.171484489
 H       -0.245098912     0.690557234    -2.978302248
 H       -0.627343122    -0.867909421    -3.696609430
 H        0.958675365    -0.605623335    -2.982971929
 H       -0.884238788    -2.941614091    -0.604410445
 H        0.645708967    -2.718306782    -1.471648265
 H       -0.854215204    -2.933460864    -2.361105279
 H        0.961208094    -0.221719054     2.932229641
 H       -0.441534724    -0.930776002     3.715043638
 H       -0.553978816     0.695330738     3.057934291
 H       -2.596594300    -1.510522311     0.719210393
 H       -2.652924554    -0.061528742     1.746209793
 H       -2.456897703    -1.654096267     2.465906206

