187   

Si        0.000000000     0.000000000     0.000000000
 C        1.864888033     0.000000000     0.000000000
 C       -0.659292374     1.719662274     0.000000000
 C       -0.054890245     2.679156694     0.821716463
 C       -0.527352354     3.989514387     0.846994544
 C       -1.623798920     4.371584400     0.067563306
 C       -2.231889732     3.409909003    -0.748143350
 C       -1.754971919     2.100727496    -0.782559053
 C       -2.144706657     5.735448382     0.069947155
 C       -1.628699662     6.732903585     0.807840535
 C       -2.118799209     8.105905400     0.838389175
 C       -1.460803653     9.024727853     1.668028162
 C       -1.882620204    10.348504366     1.739101092
 C       -2.983077841    10.783226785     0.988181533
 C       -3.643406350     9.868322832     0.162542549
 C       -3.212881363     8.542865054     0.087768752
Si       -3.518619081    12.538686037     1.101611575
 C       -5.215581745    12.765748183     0.464119654
 C       -5.584053562    13.693974398    -0.428671971
 C       -6.948461573    13.863952126    -0.930431055
 C       -7.199077587    14.879012304    -1.867011727
 C       -8.470023382    15.084900728    -2.375215429
 C       -9.553723497    14.304430187    -1.918234885
 C       -9.306235570    13.289900762    -0.977874295
 C       -8.015518256    13.066254470    -0.512077504
 N      -10.833278853    14.545784439    -2.461610400
 C      -11.240360064    15.965759338    -2.533184259
 C      -11.915106428    13.655666582    -2.010825819
 C      -10.880579212    16.794455440    -1.281618822
 C      -11.935721073    17.872925989    -0.968528951
 N      -12.727137502    17.610130164     0.257597587
 C      -13.340420452    16.323412802     0.244937183
 C      -14.352538534    16.103756890    -0.708674235
 C      -14.989068655    14.874965736    -0.774088404
 C      -14.659417655    13.843970268     0.119189228
 C      -13.668787168    14.075948294     1.076392190
 C      -13.017252133    15.302592008     1.148886743
 C      -11.977505805    17.938385414     1.484264848
 C      -15.361007215    12.562904506     0.009298568
 C      -15.123947059    11.515782186     0.809245324
Si      -15.959647476     9.892870208     0.728327624
 C      -14.687669186     8.564525838     0.715323333
 C      -13.351697472     8.859469901     0.423853190
 C      -12.389740601     7.849450927     0.414911702
 C      -12.743651380     6.525986282     0.688293332
 C      -14.084432766     6.233121994     0.974431509
 C      -15.046900480     7.238482390     0.986833837
 C      -11.778845044     5.432401087     0.692164152
 C      -10.464616337     5.553964680     0.438309722
 C       -9.523606284     4.437643675     0.450079542
 C       -9.926014513     3.129483364     0.732210048
 C       -9.003927994     2.084048107     0.735953215
 C       -7.655172086     2.325114811     0.457007151
 C       -7.247152683     3.636188754     0.176023581
 C       -8.170858981     4.678574295     0.175333135
Si       -6.442957109     0.941336978     0.463438877
 C       -7.299327057    -0.715564099     0.546092685
 C       -5.392575340     1.048529799    -1.122722062
 C       -5.288530604     1.093186109     1.968961965
 C      -17.068321930     9.694885692     2.260189152
 C      -17.033221406     9.754521249    -0.834558683
 C       -3.498188649    13.074595687     2.928926140
 C       -2.284430167    13.618545263     0.135657098
 C       -0.656361858    -0.945401188    -1.515540029
 C       -0.613776592    -0.891056162     1.568036235
 H        0.802681543     2.442069136     1.458197234
 H       -0.032260182     4.716859290     1.487944742
 H       -3.083501507     3.686395121    -1.368055066
 H       -2.270727445     1.394024189    -1.439934731
 H       -3.005464018     5.905729734    -0.581738971
 H       -0.765774760     6.549045824     1.456935217
 H       -0.608315380     8.702371219     2.262897896
 H       -1.328037224    11.019705344     2.401260603
 H       -4.506939533    10.156554878    -0.445364071
 H       -3.740623201     7.847808582    -0.562653099
 H       -5.948789357    12.062969697     0.891807844
 H       -4.875600353    14.410805016    -0.865950023
 H       -6.378355112    15.507188380    -2.213718415
 H       -8.635615515    15.848136618    -3.130611714
 H      -10.115490670    12.670943987    -0.601320119
 H       -7.845275558    12.263164698     0.206473963
 H      -12.826583104    13.858137309    -2.599567413
 H      -12.168285507    13.768421454    -0.942865894
 H      -11.634908655    12.605658152    -2.208201780
 H      -11.741344712    19.017074341     1.470614510
 H      -11.037399203    17.378702383     1.608357087
 H      -12.618562890    17.761178280     2.365359605
 H      -14.634573671    16.907223542    -1.385777340
 H      -15.766746201    14.714785933    -1.520842922
 H      -13.397308048    13.290928781     1.784227807
 H      -12.245651626    15.449580310     1.899794310
 H      -16.103537255    12.541778689    -0.798233181
 H      -14.377648076    11.577420042     1.620331080
 H      -13.017551447     9.876945535     0.195802616
 H      -11.355236214     8.102188830     0.188876873
 H      -14.379460392     5.207787749     1.189606905
 H      -16.076278226     6.950968971     1.217943677
 H      -12.207830725     4.452541027     0.926206877
 H      -10.025600933     6.526979475     0.203457261
 H      -10.970044787     2.913270833     0.952040969
 H       -9.381549999     1.083124879     0.962748409
 H       -6.203953592     3.882069669    -0.044970683
 H       -7.835252459     5.691238131    -0.041476459
 H      -10.752907848    16.403703282    -3.434257858
 H      -12.336082824    16.009782785    -2.724862587
 H      -10.759345856    16.118560806    -0.410674614
 H       -9.885749639    17.257370542    -1.412502192
 H      -11.450554743    18.867492115    -0.857395644
 H      -12.655553727    17.984904575    -1.809893377
 H        2.263286557    -1.029511092    -0.034315254
 H        2.277192443     0.487991184     0.900038387
 H        2.259528923     0.538969069    -0.880895958
 H       -6.569346791    -1.544185677     0.532101203
 H       -7.975749266    -0.854977920    -0.316011709
 H       -7.900265947    -0.819491326     1.466162695
 H       -4.677317030     1.907823585    -0.962052777
 C       -4.563344213    -0.220680829    -1.387303516
 C       -6.230064775     1.360708420    -2.375898850
 H       -4.632595998     0.174149531     1.938697018
 C       -4.375969095     2.329814000     1.942674944
 C       -6.061094141     1.081113358     3.301170281
 H      -17.566780761     8.687933961     2.152603761
 C      -16.264798755     9.687921378     3.572828602
 C      -18.169939376    10.765138740     2.350088102
 H      -17.713392993    10.655076453    -0.823740854
 C      -16.195450717     9.799782883    -2.125839528
 C      -17.915703286     8.494128489    -0.863188724
 H       -2.428259932    12.972989966     3.272002214
 C       -3.926109762    14.538722489     3.130921425
 C       -4.369574754    12.168584696     3.816772278
 H       -2.706923842    14.664791988     0.157454775
 C       -0.880274236    13.662334973     0.764213163
 C       -2.152908720    13.182575209    -1.335110897
 H       -1.782439372    -0.876269837    -1.461184004
 C       -0.206368288    -0.319454579    -2.848089336
 C       -0.280867534    -2.438292416    -1.516859628
 H       -0.108189732    -1.899423586     1.561816196
 C       -0.210714814    -0.163022164     2.863506824
 C       -2.135189602    -1.116942804     1.587125389
 H       -3.900157328    -0.486229410    -0.553026977
 H       -3.920907372    -0.073860751    -2.267882617
 H       -5.184898764    -1.098263606    -1.609171450
 H       -6.810728203     2.290144973    -2.290755750
 H       -6.935005286     0.559335379    -2.632672622
 H       -5.573493584     1.486282268    -3.248398973
 H       -3.706744816     2.363654430     1.070742273
 H       -3.715574899     2.331098929     2.822342363
 H       -4.930653553     3.277258165     1.978143995
 H       -6.678190373     0.185110606     3.442352240
 H       -6.713714927     1.957526609     3.423288266
 H       -5.355916944     1.104596647     4.144642230
 H      -15.483048699     8.915552874     3.600865177
 H      -16.931982474     9.478398809     4.421253173
 H      -15.786772301    10.653188311     3.788539960
 H      -18.837793962    10.778041274     1.479168973
 H      -17.770217191    11.781333897     2.477952808
 H      -18.809211651    10.574643457     3.224204318
 H      -15.559822474    10.691945990    -2.208310043
 H      -16.855942860     9.807832821    -3.004180312
 H      -15.543329256     8.921485175    -2.240199434
 H      -18.613927045     8.430730004    -0.018920792
 H      -17.332072736     7.563072086    -0.889368793
 H      -18.534662934     8.490287772    -1.772424392
 H       -3.295754378    15.255398453     2.588967274
 H       -3.854750943    14.808682878     4.194159908
 H       -4.968946968    14.723776876     2.835751498
 H       -4.093621954    11.106123987     3.758407301
 H       -5.441149500    12.246418468     3.587440439
 H       -4.258543021    12.456117087     4.871994944
 H       -0.872928865    14.056624849     1.788179305
 H       -0.227255665    14.324339409     0.176830316
 H       -0.385771557    12.680869245     0.776351710
 H       -3.109414814    13.159342929    -1.875244777
 H       -1.691891540    12.190191830    -1.444729816
 H       -1.506673548    13.884033925    -1.881081381
 H       -0.462022590     0.745068855    -2.942623706
 H       -0.696003991    -0.830294297    -3.689408173
 H        0.874593494    -0.412764199    -3.019421960
 H       -0.643310560    -2.978884365    -0.632864599
 H        0.801069850    -2.609133343    -1.592085182
 H       -0.730757650    -2.937587581    -2.387377464
 H        0.872009796    -0.016888584     2.964835425
 H       -0.522358054    -0.752220638     3.738096794
 H       -0.693649208     0.819436991     2.967600919
 H       -2.495552300    -1.727384413     0.749512357
 H       -2.701416986    -0.172389819     1.590880826
 H       -2.426363369    -1.651956909     2.502647714

