187   

Si        0.000000000     0.000000000     0.000000000
 C        1.865466676     0.000000000     0.000000000
 C       -0.652870199     1.721995766     0.000000000
 C        0.062037318     2.741086953    -0.639552365
 C       -0.420330777     4.049049482    -0.647408133
 C       -1.630411256     4.368477360    -0.024928430
 C       -2.348784886     3.345811413     0.607890487
 C       -1.869227045     2.038197104     0.617687725
 C       -2.171578696     5.723739674    -0.009427504
 C       -1.578946623     6.787021613    -0.578751761
 C       -2.112181283     8.144957812    -0.568365360
 C       -3.320096647     8.478221102     0.049876780
 C       -3.790570819     9.791388813     0.034093255
 C       -3.069063571    10.796226830    -0.616896949
 C       -1.858762785    10.464272049    -1.241585219
 C       -1.385832276     9.155724888    -1.212630470
Si       -3.650171310    12.540894611    -0.663837603
 C       -3.256594035    13.324101673    -2.269549665
 C       -3.180500417    12.651050560    -3.425445349
 C       -2.866887799    13.262576852    -4.717791359
 C       -2.818135113    12.443283333    -5.856312861
 C       -2.526293662    12.969408633    -7.102984573
 C       -2.214048034    14.338919335    -7.243785918
 C       -2.257588770    15.159562959    -6.104394958
 C       -2.602228521    14.625097573    -4.867403193
 N       -1.922113203    14.836864860    -8.532785799
 C       -0.968484367    14.047626592    -9.335697587
 C       -1.695495404    16.286951836    -8.644398866
 C        0.488221778    14.070371502    -8.841390512
 C        0.669856745    13.266150492    -7.540197459
 N        2.080070819    13.043671727    -7.182673407
 C        2.856602069    12.273219569    -8.063498970
 C        2.252984378    11.244940198    -8.820371536
 C        3.008525122    10.478797259    -9.692020281
 C        4.393018188    10.666402403    -9.812092730
 C        4.994619833    11.663197866    -9.039108533
 C        4.249430294    12.452030586    -8.172280641
 C        2.713804374    14.229140172    -6.583910350
 C        5.140936085     9.827508778   -10.749645566
 C        6.462544631     9.914825937   -10.949438112
Si        7.435440771     8.889531611   -12.107806654
 C        8.899608882     8.182229212   -11.247942953
 C        8.947325753     8.131165745    -9.849635607
 C       10.057620839     7.594896466    -9.201800883
 C       11.139450963     7.088084441    -9.933246390
 C       11.085374003     7.135010745   -11.329503596
 C        9.977880266     7.674954358   -11.981427187
 C       12.280196154     6.536436084    -9.209371618
 C       13.379053712     6.024528434    -9.789386633
 C       14.520361338     5.472634646    -9.066895783
 C       14.578023394     5.424026120    -7.671738416
 C       15.689569249     4.887346908    -7.022033009
 C       16.771601041     4.391316915    -7.755807208
 C       16.716227547     4.438907115    -9.155457377
 C       15.603484027     4.970649094    -9.800994013
Si       18.245714808     3.679951365    -6.913304523
 C       18.261405776     4.092290168    -5.094042997
 C       18.236949567     1.786949879    -7.112097802
 C       19.807155788     4.368029999    -7.757239527
 C        6.383433629     7.472374326   -12.816723224
 C        8.023295193     9.991268714   -13.544141083
 C       -5.528829157    12.626348373    -0.379348077
 C       -2.778127605    13.517348966     0.715931860
 C       -0.634661477    -0.894983413    -1.554971846
 C       -0.650428291    -0.929095222     1.528734687
 H        1.014108625     2.553364789    -1.144241379
 H        0.158088340     4.823991572    -1.147462020
 H       -3.294110343     3.572017275     1.097430515
 H       -2.475269738     1.282709214     1.124988203
 H       -3.126307662     5.830699550     0.513063520
 H       -0.623446252     6.676666916    -1.100915677
 H       -3.904457267     7.711655337     0.554995295
 H       -4.737307377     9.992736102     0.542279992
 H       -1.252815034    11.210637919    -1.767197419
 H       -0.442227500     8.917045853    -1.700360850
 H       -3.101419963    14.412156706    -2.227863306
 H       -3.340407877    11.564687245    -3.490351250
 H       -3.028171265    11.376522251    -5.762162429
 H       -2.544415645    12.324363277    -7.977958756
 H       -2.027381058    16.217671812    -6.171463837
 H       -2.646226126    15.286244503    -4.000943964
 H       -1.575658603    16.557874182    -9.707546167
 H       -0.812639401    16.647220238    -8.092925263
 H       -2.589832794    16.822296112    -8.276858814
 H        1.997275089    14.742955892    -5.920045461
 H        3.078553225    14.954540416    -7.328552776
 H        3.559972819    13.906933475    -5.949315865
 H        1.188123386    11.050097766    -8.728323981
 H        2.516437927     9.705566250   -10.282886357
 H        6.070888281    11.829775082    -9.110511481
 H        4.757757252    13.213401022    -7.589851672
 H        4.506811199     9.104471968   -11.279626036
 H        7.071167741    10.656891811   -10.406476810
 H        8.128049117     8.506531349    -9.227533878
 H       10.080191801     7.567869544    -8.113947763
 H       11.912430664     6.747562042   -11.921241518
 H        9.993251443     7.686328662   -13.074732811
 H       12.187150575     6.563736668    -8.119691724
 H       13.471420266     5.997237701   -10.879079379
 H       13.750227586     5.806414005    -7.077289130
 H       15.676697804     4.876509423    -5.928654872
 H       17.532430488     4.066425120    -9.780871819
 H       15.578123983     4.997593686   -10.888685693
 H       -1.336064303    12.997986020    -9.395791792
 H       -1.012044462    14.436708058   -10.380375293
 H        1.143102728    13.648867985    -9.631447267
 H        0.832960677    15.109019838    -8.695082883
 H        0.171403873    13.785143268    -6.687797648
 H        0.160925591    12.277367072    -7.611959407
 H        2.264271382    -1.028745247     0.052067177
 H        2.258297435     0.554138157     0.872222959
 H        2.277619489     0.471127334    -0.909194080
 H       19.168884791     3.696334326    -4.604149534
 H       17.387987045     3.666047245    -4.570212891
 H       18.249399598     5.186025605    -4.935840309
 H       19.134331090     1.416000357    -6.537275912
 C       16.979874751     1.135139442    -6.507583281
 C       18.380935149     1.319656753    -8.571615023
 H       19.747906305     4.036117210    -8.834618571
 C       19.856251537     5.906616675    -7.741215802
 C       21.117683858     3.818053209    -7.166707789
 H        5.457038873     7.957720626   -13.240781543
 C        7.077949737     6.702484607   -13.954347442
 C        5.948071799     6.466751809   -11.735182552
 H        8.596377929     9.314085735   -14.241337149
 C        6.862601905    10.618630237   -14.335822459
 C        8.975713659    11.107213845   -13.078527324
 H       -5.714148736    12.153863684     0.628414820
 C       -6.071006579    14.066259128    -0.334441928
 C       -6.316980955    11.830501761    -1.435116918
 H       -3.170486397    14.572798865     0.646982474
 C       -3.090114984    12.981639948     2.124032517
 C       -1.251354681    13.561966838     0.524571184
 H       -0.181821769    -1.927731873    -1.523375778
 C       -2.166490880    -1.044968347    -1.583218319
 C       -0.180113224    -0.214301720    -2.858926950
 H       -1.776406553    -0.904332330     1.451581345
 C       -0.217287560    -2.405487942     1.579016725
 C       -0.251481293    -0.246927602     2.850053637
 H       16.846272401     1.351635928    -5.439905181
 H       17.044620810     0.040918675    -6.593081171
 H       16.055460429     1.429676642    -7.025059236
 H       19.305246577     1.666080648    -9.050882361
 H       17.536161590     1.627563138    -9.203827324
 H       18.407952713     0.220904564    -8.612727791
 H       18.971745748     6.373684399    -8.197696618
 H       20.722536796     6.262309939    -8.317020528
 H       19.964979913     6.322226858    -6.730673959
 H       21.187953927     2.723455520    -7.208344462
 H       21.279780296     4.124368401    -6.124757297
 H       21.976054882     4.202665048    -7.736670532
 H        7.337300907     7.333749933   -14.813574851
 H        6.408554703     5.920091978   -14.340670085
 H        7.991339644     6.186411442   -13.626545270
 H        5.406243784     6.927543754   -10.897797271
 H        6.793839543     5.907768937   -11.309037295
 H        5.270285352     5.717267816   -12.167004656
 H        6.184437412     9.876284261   -14.775791874
 H        7.255517809    11.211301807   -15.174186764
 H        6.254935840    11.306761874   -13.730803205
 H        9.856918122    10.730614903   -12.540035925
 H        8.483948525    11.848593436   -12.434021864
 H        9.360643485    11.660340998   -13.946984976
 H       -5.614197282    14.680176772     0.452146511
 H       -7.150482578    14.054166614    -0.124825290
 H       -5.950738622    14.598100105    -1.288604014
 H       -6.028630309    10.771694220    -1.491058371
 H       -6.220392792    12.251411241    -2.446640553
 H       -7.389696775    11.845334795    -1.196418936
 H       -4.158754581    13.005617848     2.372822980
 H       -2.584799681    13.598034777     2.881715025
 H       -2.733600790    11.953161997     2.279720265
 H       -0.944297308    13.984478821    -0.441700179
 H       -0.780523586    12.572625137     0.619457918
 H       -0.792915325    14.194707229     1.297782037
 H       -2.563721623    -1.616581102    -0.734856570
 H       -2.474567821    -1.587103382    -2.489017985
 H       -2.690361984    -0.078859340    -1.611923304
 H        0.910778179    -0.144079957    -2.956789525
 H       -0.592872029     0.797813740    -2.978577075
 H       -0.529144173    -0.792379737    -3.726649749
 H       -0.532985297    -2.981493902     0.699581187
 H       -0.672651770    -2.900385377     2.449174131
 H        0.868093461    -2.530398278     1.688764195
 H       -0.567363166     0.804167636     2.910937163
 H        0.830266702    -0.276941871     3.037583522
 H       -0.726293995    -0.760602874     3.698058221

