187   

Si        0.000000000     0.000000000     0.000000000
 C        1.865005184     0.000000000     0.000000000
 C       -0.681847664     1.709952243     0.000000000
 C        0.109268048     2.802685029    -0.368582772
 C       -0.418197337     4.093941316    -0.364805221
 C       -1.747636415     4.321556555    -0.000055607
 C       -2.540629055     3.224932302     0.363954595
 C       -2.016679340     1.935272651     0.362789042
 C       -2.343408777     5.653293145     0.019084724
 C       -1.698304779     6.787081533    -0.303928334
 C       -2.298898651     8.116909407    -0.283144278
 C       -1.511513607     9.218549394    -0.644280062
 C       -2.042195984    10.505817513    -0.639087206
 C       -3.378651775    10.719951215    -0.278966558
 C       -4.166996970     9.622523825     0.082190970
 C       -3.629657785     8.335829227     0.083317849
Si       -4.086533350    12.416844783    -0.269723927
 C       -5.912431453    12.324336483    -0.307423354
 C       -6.748828524    12.969180139     0.515637674
 C       -8.208435103    12.863916796     0.447211582
 C       -8.980610574    13.590246389     1.367260720
 C      -10.363808209    13.524959773     1.344561971
 C      -11.020015953    12.747046761     0.369221516
 C      -10.252650712    12.015703242    -0.548726236
 C       -8.863574136    12.062799952    -0.490647382
 N      -12.437820854    12.725273468     0.404255787
 C      -13.089492420    14.031009601     0.177526454
 C      -13.082463857    11.610673707    -0.306195930
 C      -13.353635635    14.419523375    -1.287700822
 C      -12.085200700    14.685269632    -2.119895353
 N      -11.415296627    15.970619685    -1.866518312
 C      -12.191512971    17.135200723    -1.903125522
 C      -13.258530508    17.234025791    -2.824430064
 C      -14.036748097    18.378247016    -2.874678571
 C      -13.760640842    19.482074613    -2.054634209
 C      -12.685879285    19.393675096    -1.165417636
 C      -11.905482100    18.247996338    -1.087694283
 C      -10.321282415    15.909941078    -0.889248719
 C      -14.615841404    20.666045348    -2.148874868
 C      -14.446360542    21.774694299    -1.416454106
Si      -15.481264593    23.278345595    -1.492829347
 C      -15.996400174    23.764973965     0.205217085
 C      -15.945846283    22.838775373     1.252161180
 C      -16.335703740    23.205130139     2.539916065
 C      -16.793492471    24.498228162     2.807228994
 C      -16.848876401    25.422135471     1.754944565
 C      -16.456366754    25.061389247     0.468692072
 C      -17.211468995    24.925160888     4.138594576
 C      -17.206953594    24.140349571     5.229466958
 C      -17.624465072    24.565336445     6.561434889
 C      -18.078531131    25.858551320     6.832773209
 C      -18.467968625    26.222006853     8.121862669
 C      -18.417200201    25.295543993     9.168035777
 C      -17.962890132    23.997439569     8.898355822
 C      -17.569931890    23.639250214     7.611908820
Si      -18.927720217    25.759869526    10.874684744
 C      -19.859875092    27.375525164    10.896166295
 C      -20.016586342    24.363650052    11.573726661
 C      -17.382357928    25.928933507    11.973123924
 C      -14.457643103    24.683701608    -2.266654437
 C      -17.030768813    22.993225758    -2.557818393
 C       -3.475245046    13.342588902     1.274422534
 C       -3.504695678    13.356411937    -1.818542349
 C       -0.619171148    -0.917501408    -1.548518664
 C       -0.651686730    -0.911597330     1.539215583
 H        1.155898411     2.687135525    -0.663396911
 H        0.219796494     4.927939676    -0.651442683
 H       -3.578933051     3.380068346     0.651328016
 H       -2.683470394     1.119621787     0.656393822
 H       -3.393509791     5.679224640     0.325624102
 H       -0.648633206     6.762950402    -0.610406073
 H       -0.472657401     9.069229016    -0.932027142
 H       -1.380492527    11.326981035    -0.928035576
 H       -5.216015764     9.732218201     0.376061161
 H       -4.261718629     7.497895617     0.371926931
 H       -6.295889950    11.671265654    -1.109820887
 H       -6.400377861    13.631895973     1.318429573
 H       -8.486531889    14.204139199     2.121070344
 H      -10.951930106    14.060535701     2.087537154
 H      -10.731800779    11.402069550    -1.305734884
 H       -8.284892043    11.474397035    -1.204503644
 H      -14.160451531    11.611967520    -0.066930009
 H      -12.667755299    10.657286084     0.068083731
 H      -12.968025902    11.637677073    -1.400959666
 H       -9.762034651    14.962335427    -1.002355863
 H      -10.658133052    15.979806944     0.157892985
 H       -9.605444469    16.727458698    -1.093433798
 H      -13.471973425    16.411422429    -3.500057448
 H      -14.868308656    18.424772080    -3.578530059
 H      -12.448682002    20.238250963    -0.515965418
 H      -11.083784219    18.220084090    -0.379657981
 H      -15.423593102    20.557457017    -2.884414384
 H      -13.618020967    21.854938591    -0.692716183
 H      -15.601817795    21.810233126     1.101239063
 H      -16.282584778    22.468519230     3.339445989
 H      -17.202548204    26.434068343     1.942213769
 H      -16.519511798    25.823946082    -0.312335649
 H      -17.543649686    25.965426435     4.202346690
 H      -16.875238930    23.099829232     5.164668987
 H      -18.131422018    26.597182382     6.035055216
 H      -18.813781475    27.248365679     8.272565544
 H      -17.902490270    23.231074178     9.676262828
 H      -17.218855594    22.626692060     7.422220222
 H      -14.063061013    13.993566812     0.724005290
 H      -12.490977940    14.828547383     0.671751926
 H      -13.952591451    13.634642370    -1.786002358
 H      -13.999360304    15.323545487    -1.295820510
 H      -11.350160333    13.861757018    -1.967973681
 H      -12.345007362    14.657107307    -3.205972213
 H        2.262744591    -1.029586327     0.046333902
 H        2.260356888     0.548366228     0.874508113
 H        2.275592485     0.474262382    -0.908496372
 H      -20.198443032    27.626328486    11.917320543
 H      -20.757015537    27.323487205    10.252862415
 H      -19.235938452    28.212936674    10.537790115
 H      -19.369549365    23.438577323    11.576362610
 C      -20.485029593    24.614723332    13.018063079
 C      -21.244499728    24.076032863    10.690984535
 H      -17.759904420    26.268076500    12.980902606
 C      -16.618971204    24.607095322    12.170825525
 C      -16.399715283    26.992170749    11.448963362
 H      -15.144014741    25.577778260    -2.316256832
 C      -13.239683282    25.067385640    -1.407376297
 C      -13.984491895    24.365840213    -3.695856467
 H      -16.658239448    22.592105024    -3.544748717
 C      -17.979815407    21.948191753    -1.942524040
 C      -17.828461840    24.279249036    -2.837921577
 H       -4.022901842    14.329267651     1.281566273
 C       -3.814439113    12.595083529     2.577084222
 C       -1.964914570    13.637272653     1.253553783
 H       -2.381266752    13.424613353    -1.737486719
 C       -3.842103850    12.610287286    -3.121566101
 C       -4.065348877    14.787034166    -1.898939640
 H       -0.134934388    -1.936032042    -1.515641581
 C       -2.145377876    -1.115457639    -1.573984667
 C       -0.189254826    -0.227100823    -2.855897637
 H       -1.776206478    -0.921763545     1.440773267
 C       -0.175319506    -2.372026345     1.634691560
 C       -0.300149714    -0.182783097     2.848797212
 H      -19.657798779    24.761455833    13.724506043
 H      -21.051525515    23.746328502    13.384803579
 H      -21.157431325    25.478358144    13.106188921
 H      -20.984055681    23.834929019     9.650335322
 H      -21.961191377    24.907615902    10.667951869
 H      -21.792727556    23.205905312    11.079362270
 H      -17.227916174    23.815889564    12.626068392
 H      -15.765869153    24.764064833    12.847063056
 H      -16.197871971    24.213439747    11.234956280
 H      -16.845671511    27.990748385    11.356127724
 H      -15.966711493    26.729157564    10.473046041
 H      -15.553121811    27.097392117    12.142571881
 H      -13.504435221    25.351604791    -0.379176982
 H      -12.729614982    25.937625501    -1.844294957
 H      -12.488564693    24.267725478    -1.348299807
 H      -14.808448438    24.167072167    -4.393118238
 H      -13.298673097    23.507301863    -3.738474522
 H      -13.431579305    25.221503014    -4.108909370
 H      -17.499595996    20.980052572    -1.745016858
 H      -18.814141385    21.745404826    -2.628324118
 H      -18.432041592    22.287588449    -0.999361791
 H      -17.248607357    25.044612689    -3.369235606
 H      -18.236380740    24.737481046    -1.926034396
 H      -18.693689503    24.052320240    -3.477700276
 H       -4.885013047    12.379494723     2.695636266
 H       -3.522914025    13.200584599     3.446854297
 H       -3.276150196    11.640729307     2.672722450
 H       -1.652247878    14.253604078     0.401091331
 H       -1.350698886    12.725678662     1.254273662
 H       -1.679348402    14.197094589     2.156315438
 H       -3.439355944    11.588010684    -3.155311718
 H       -3.406999181    13.139051718    -3.981780669
 H       -4.922075172    12.548481318    -3.312905775
 H       -3.788672122    15.412182821    -1.040214111
 H       -5.160677592    14.813843058    -1.991501813
 H       -3.669734169    15.296544561    -2.789462015
 H       -2.524690227    -1.688823949    -0.718694817
 H       -2.435895285    -1.678686344    -2.472838458
 H       -2.698640405    -0.166543333    -1.616421092
 H        0.898401460    -0.118573654    -2.955084768
 H       -0.636300986     0.769842025    -2.979272656
 H       -0.518426977    -0.820446407    -3.721012544
 H       -0.451086652    -2.977541797     0.761715107
 H       -0.636693102    -2.860820861     2.505179426
 H        0.910336500    -2.460303717     1.773644122
 H       -0.659035818     0.856062132     2.877291474
 H        0.778398144    -0.165308554     3.054347830
 H       -0.769241963    -0.693117938     3.702058292

