187   

Si        0.000000000     0.000000000     0.000000000
 C        1.867606614     0.000000000     0.000000000
 C       -0.620050133     1.736391026     0.000000000
 C       -0.005606527     2.691188572     0.819677089
 C       -0.456814183     4.010407717     0.836727952
 C       -1.554093120     4.404658111     0.064865128
 C       -2.177942091     3.444538726    -0.742010672
 C       -1.717565545     2.129515966    -0.775435379
 C       -2.057977625     5.775501636     0.054312181
 C       -1.530274861     6.782319715     0.771326354
 C       -2.012490849     8.159907377     0.780215366
 C       -1.344856585     9.091140685     1.588347201
 C       -1.758190106    10.418972761     1.638462714
 C       -2.853661502    10.852223903     0.879019425
 C       -3.523337467     9.924885862     0.074650082
 C       -3.108142678     8.592754328     0.029297503
Si       -3.378159127    12.615663830     0.965308819
 C       -4.999821115    12.889565213     0.157169862
 C       -5.202101629    13.859088570    -0.746214709
 C       -6.458237382    14.146729837    -1.436960827
 C       -6.478823516    15.207620352    -2.354529188
 C       -7.630447264    15.539976015    -3.046706252
 C       -8.848661012    14.879304042    -2.773419205
 C       -8.833340499    13.829653715    -1.827968696
 C       -7.653552659    13.465653109    -1.192293847
 N      -10.009862838    15.212503179    -3.469445209
 C      -10.162936076    16.522312610    -4.120422691
 C      -11.275752378    14.607780603    -3.035414675
 C      -11.036796204    17.515065004    -3.329851578
 C      -10.513944332    18.963908536    -3.372519881
 N       -9.353909435    19.268219993    -2.501497826
 C       -9.348622695    18.565449214    -1.270201209
 C      -10.492922216    18.670504355    -0.453344182
 C      -10.542652673    18.005218261     0.760187047
 C       -9.447146437    17.259897737     1.217826405
 C       -8.303264023    17.185749422     0.419536908
 C       -8.244518353    17.836027897    -0.806977441
 C       -8.073903644    19.321574004    -3.225711464
 C       -9.551678512    16.575983058     2.507178978
 C       -8.566651319    15.839687347     3.035435664
Si       -8.634299793    14.963804328     4.634815868
 C       -8.083776594    13.238826099     4.311266094
 C       -7.986541491    12.766460482     2.995943491
 C       -7.570444168    11.461710832     2.744090999
 C       -7.243757794    10.601611146     3.799791529
 C       -7.346874873    11.075874116     5.111505754
 C       -7.766580190    12.379636670     5.367592145
 C       -6.812044962     9.242200890     3.495034388
 C       -6.480140619     8.338415910     4.431568606
 C       -6.045150419     6.973715508     4.166164248
 C       -5.925175614     6.450518752     2.876919998
 C       -5.503453067     5.134915292     2.681508442
 C       -5.217550249     4.312565831     3.775205226
 C       -5.345014052     4.834272340     5.070056250
 C       -5.749990115     6.150551446     5.261437117
Si       -4.659584685     2.574589213     3.563379544
 C       -4.326430414     2.174980250     1.775404498
 C       -3.087898532     2.349262730     4.613577985
 C       -6.006189674     1.387811934     4.200314096
 C       -7.489277635    15.796900443     5.900150752
 C      -10.403202329    14.947923300     5.332525211
 C       -3.407753815    13.201656314     2.772103279
 C       -2.046887564    13.649115333     0.063989552
 C       -0.656346833    -0.914388204    -1.535636450
 C       -0.588224226    -0.947786633     1.538836217
 H        0.848683990     2.443958412     1.456631084
 H        0.052120170     4.734946208     1.470572596
 H       -3.032357721     3.726181981    -1.354489685
 H       -2.246506149     1.428935077    -1.427150913
 H       -2.922373135     5.944122381    -0.592702842
 H       -0.666880216     6.602779217     1.420748505
 H       -0.494254022     8.773874566     2.188566628
 H       -1.203204046    11.095079363     2.295169186
 H       -4.385825692    10.207728652    -0.536242272
 H       -3.648603696     7.888936796    -0.600143699
 H       -5.806027298    12.212726951     0.472450125
 H       -4.399781184    14.546571083    -1.055923170
 H       -5.562605823    15.764775767    -2.555428448
 H       -7.588068455    16.320215175    -3.799969276
 H       -9.745022111    13.296649984    -1.580405578
 H       -7.669512860    12.642600439    -0.475781502
 H      -12.103544967    14.943990000    -3.681343240
 H      -11.530172312    14.849699942    -1.988698651
 H      -11.210895257    13.508261631    -3.140794244
 H       -8.171064849    20.015583619    -4.078036458
 H       -7.717526453    18.349995115    -3.600669654
 H       -7.301160621    19.744209803    -2.556749006
 H      -11.333598271    19.277153649    -0.779148580
 H      -11.441205805    18.078633107     1.372670903
 H       -7.439870129    16.602956704     0.748749621
 H       -7.346837080    17.737097813    -1.411613828
 H      -10.520118269    16.724097050     3.000821920
 H       -7.600624004    15.723142006     2.512845152
 H       -8.229362346    13.395103843     2.131573967
 H       -7.498506807    11.108295502     1.717079903
 H       -7.100237685    10.426001476     5.948961617
 H       -7.828548094    12.695067416     6.412354863
 H       -6.764415496     8.994684558     2.431492202
 H       -6.524241562     8.600527253     5.493789773
 H       -6.144997123     7.073257401     2.011922505
 H       -5.405905936     4.782874997     1.650946238
 H       -5.131472872     4.238014109     5.961774781
 H       -5.837627860     6.542593248     6.272554053
 H       -9.165357245    16.967709170    -4.325208247
 H      -10.617162601    16.333234059    -5.122887567
 H      -12.071216870    17.497041623    -3.720378777
 H      -11.125964460    17.177788014    -2.276064245
 H      -10.276882142    19.252873807    -4.418278500
 H      -11.332078483    19.650620781    -3.042975186
 H        2.267000391    -1.028495023    -0.040950432
 H        2.278192588     0.483608462     0.903104803
 H        2.260677357     0.545080790    -0.877664968
 H       -4.033089798     1.117606806     1.645394793
 H       -3.496865969     2.795402113     1.379900912
 H       -5.212493394     2.355245724     1.143090067
 H       -3.314726013     2.818599656     5.615218741
 C       -2.716460631     0.877803353     4.863203733
 C       -1.879036874     3.088483783     4.013313613
 H       -5.597091481     0.349777892     4.031431039
 C       -6.314253181     1.539179234     5.700825134
 C       -7.324488744     1.513940208     3.414239852
 H       -7.619889933    15.218528192     6.860715641
 C       -6.005250639    15.722519226     5.503085110
 C       -7.862975984    17.264873335     6.172259764
 H      -10.731350723    16.027155113     5.367495117
 C      -11.382893232    14.177154427     4.428138686
 C      -10.498496335    14.377537225     6.758842253
 H       -2.334725964    13.149645991     3.120683964
 C       -3.885890601    14.657758264     2.912355199
 C       -4.242520542    12.306145210     3.698085723
 H       -2.444053400    14.704398627     0.033476260
 C       -0.686657376    13.681759911     0.782891439
 C       -1.822011404    13.174091810    -1.383305813
 H       -1.781377807    -0.834216046    -1.487452301
 C       -0.188907669    -0.271885177    -2.854580314
 C       -0.295358907    -2.411028589    -1.561398413
 H       -0.131767776    -1.977056056     1.446981920
 C       -0.080721385    -0.325009869     2.851037240
 C       -2.115386559    -1.112682002     1.609449657
 H       -3.482635319     0.328936850     5.425381318
 H       -1.794972259     0.817681120     5.459453205
 H       -2.521737295     0.320562050     3.936136817
 H       -2.055491200     4.165583891     3.877601673
 H       -1.567032232     2.685060940     3.038096550
 H       -1.011068464     2.999900777     4.680667126
 H       -5.431001621     1.431030694     6.342763647
 H       -7.022931357     0.761248913     6.018948858
 H       -6.788955026     2.501049634     5.940800418
 H       -7.209029058     1.330586939     2.338266205
 H       -7.800739563     2.497393868     3.534714540
 H       -8.051858064     0.773926461     3.776457848
 H       -5.655190693    14.694330182     5.326506254
 H       -5.377350852    16.126615767     6.309416183
 H       -5.774759097    16.313515728     4.605586553
 H       -8.886574666    17.392265274     6.547007350
 H       -7.751175077    17.905984904     5.285901112
 H       -7.200170270    17.686049677     6.941550470
 H      -11.405744983    14.541980775     3.391960553
 H      -12.407560311    14.272491410     4.813058911
 H      -11.166867695    13.099608909     4.389783900
 H       -9.898549215    14.932084461     7.491485610
 H      -10.208843784    13.319031417     6.816780205
 H      -11.538045950    14.428143917     7.114321576
 H       -3.312380528    15.370663024     2.306988778
 H       -3.777288910    14.986001206     3.956006457
 H       -4.949091714    14.779372731     2.655962655
 H       -3.977748825    11.241112532     3.642186656
 H       -5.323597746    12.384617809     3.504010077
 H       -4.098845497    12.602649571     4.746103793
 H       -0.739258760    14.094671847     1.798086432
 H        0.014349847    14.322735986     0.228694132
 H       -0.211105628    12.692992726     0.843295589
 H       -2.738553395    13.151682951    -1.988467303
 H       -1.373638339    12.171236660    -1.435088796
 H       -1.126531076    13.849733926    -1.899977176
 H       -0.429558908     0.797529825    -2.932256074
 H       -0.680654093    -0.760715924    -3.707560353
 H        0.891887799    -0.377234695    -3.020090941
 H       -0.679129150    -2.965697760    -0.695451236
 H        0.786086834    -2.590947843    -1.621532914
 H       -0.735115588    -2.887677163    -2.449562027
 H        1.013737397    -0.270123900     2.912120857
 H       -0.402522640    -0.935309585     3.707221818
 H       -0.476154411     0.687394612     3.026524196
 H       -2.534075134    -1.653090686     0.750734844
 H       -2.644030641    -0.150539416     1.686925140
 H       -2.392982759    -1.693255015     2.501005905

