187   

Si        0.000000000     0.000000000     0.000000000
 C        1.866591297     0.000000000     0.000000000
 C       -0.621365773     1.736586019     0.000000000
 C        0.006207578     2.703555146     0.794717570
 C       -0.450975129     4.021114705     0.806351206
 C       -1.544422657     4.407357589     0.026503677
 C       -2.177001453     3.436925939    -0.761048928
 C       -1.728336629     2.118197143    -0.767980608
 C       -2.057235188     5.773530562     0.006922433
 C       -1.551665593     6.796022378     0.718339212
 C       -2.069286656     8.160853409     0.694440371
 C       -1.447478879     9.135227033     1.486696335
 C       -1.907951842    10.449588664     1.494709720
 C       -2.998086722    10.827563187     0.700391015
 C       -3.617614137     9.855262786    -0.092630297
 C       -3.160123998     8.538080830    -0.092676523
Si       -3.614349487    12.567500172     0.705431097
 C       -4.955844259    12.690655009    -0.537443199
 C       -5.013910010    13.637064526    -1.483735193
 C       -6.068911983    13.762858063    -2.488624206
 C       -5.983536022    14.812372487    -3.412290412
 C       -6.947499960    14.992022296    -4.391836189
 C       -8.090160036    14.166172644    -4.427089039
 C       -8.189799096    13.123438010    -3.479296580
 C       -7.186827098    12.923508561    -2.542448696
 N       -9.081202168    14.320887718    -5.401656424
 C       -8.993600416    15.432717473    -6.356709970
 C      -10.444256193    13.908959602    -5.038580777
 C       -9.111884224    16.845755306    -5.756099730
 C      -10.565279720    17.341993926    -5.638871479
 N      -10.884251999    17.996353250    -4.349421224
 C      -10.876845355    17.055781556    -3.266881921
 C      -12.039865106    16.282119951    -3.119765626
 C      -12.120419422    15.347264480    -2.099702183
 C      -11.045339659    15.149204390    -1.219819369
 C       -9.894637687    15.926548666    -1.370507413
 C       -9.810948935    16.884316308    -2.376642179
 C      -10.082489786    19.209361766    -4.107386307
 C      -11.194050580    14.146348689    -0.163419948
 C      -10.254770100    13.851758810     0.744311847
Si      -10.466873799    12.594545765     2.053044787
 C       -9.094474835    11.383403414     2.182703061
 C       -8.281843304    11.006396102     1.108829825
 C       -7.256925710    10.076497256     1.291614266
 C       -7.037525244     9.488130718     2.542967580
 C       -7.863934272     9.860182867     3.609451115
 C       -8.880498214    10.792244151     3.434451730
 C       -5.962932981     8.515120644     2.728513670
 C       -5.715498059     7.935048240     3.915468155
 C       -4.677249105     6.958727032     4.211142138
 C       -3.774573616     6.486602392     3.257507607
 C       -2.802353484     5.549679570     3.607307387
 C       -2.694766097     5.091252404     4.924993545
 C       -3.595791442     5.568833338     5.884209088
 C       -4.580425900     6.484577962     5.527164681
Si       -1.407894367     3.855762916     5.371198065
 C        0.175197267     4.142614997     4.428788835
 C       -1.063272991     3.892157771     7.240353513
 C       -2.114218611     2.152258710     4.893658776
 C      -10.593160187    13.564225472     3.691181809
 C      -12.077246155    11.613863374     1.792181055
 C       -4.216091830    13.076009195     2.433517486
 C       -2.196179080    13.746907515     0.219641096
 C       -0.646633533    -0.908425809    -1.544132656
 C       -0.622605333    -0.944332948     1.527737186
 H        0.869945679     2.464003292     1.422114033
 H        0.065179284     4.758361411     1.420582550
 H       -3.034375591     3.711540239    -1.372683587
 H       -2.271391836     1.406358995    -1.395509256
 H       -2.918552717     5.926484966    -0.650237018
 H       -0.687494074     6.647480129     1.373276427
 H       -0.599394395     8.862496344     2.112136705
 H       -1.392524119    11.161027470     2.145821628
 H       -4.464956198    10.089958093    -0.744214700
 H       -3.660857620     7.803542448    -0.720429096
 H       -5.749466408    11.934780072    -0.434317819
 H       -4.241935097    14.412908168    -1.588794783
 H       -5.130845239    15.491717066    -3.381218679
 H       -6.807580066    15.780461566    -5.123000170
 H       -9.052774902    12.464833565    -3.480646586
 H       -7.282043174    12.102124451    -1.830508403
 H      -11.176446607    14.254444259    -5.784102670
 H      -10.754803306    14.294240799    -4.049536434
 H      -10.494102964    12.804408486    -5.018786002
 H      -10.332039695    19.950367207    -4.886561045
 H       -8.993251200    19.054601135    -4.112227077
 H      -10.371026390    19.645352504    -3.134913624
 H      -12.875674687    16.440197356    -3.798986504
 H      -13.031974370    14.762020323    -1.981720916
 H       -9.045525813    15.784203829    -0.699740200
 H       -8.907822730    17.481257880    -2.472917969
 H      -12.171326757    13.644952396    -0.191510402
 H       -9.280523338    14.367274951     0.754160796
 H       -8.415104025    11.435162616     0.111462826
 H       -6.623604884     9.800520012     0.450043037
 H       -7.721207633     9.419543182     4.595293140
 H       -9.487820765    11.034772034     4.311932150
 H       -5.359823504     8.294416883     1.845045310
 H       -6.336046321     8.187972363     4.784800306
 H       -3.825391347     6.846904829     2.229657187
 H       -2.135443245     5.197068500     2.812649362
 H       -3.562757599     5.243998279     6.927010153
 H       -5.278374856     6.839108946     6.282845458
 H       -8.013774302    15.334972430    -6.886260420
 H       -9.768263016    15.279715529    -7.141930481
 H       -8.635313956    16.854327124    -4.752986670
 H       -8.522530433    17.554382943    -6.365247779
 H      -10.793049302    18.072099278    -6.446144710
 H      -11.281947489    16.501358870    -5.772028504
 H        2.265496874    -1.027615781    -0.065433032
 H        2.278870096     0.461262191     0.914007109
 H        2.258532535     0.565023426    -0.865482890
 H        0.992692756     3.516437925     4.827448622
 H        0.495145057     5.197251038     4.504285567
 H        0.058022310     3.896768681     3.358654025
 H       -2.054196005     3.697637712     7.744963039
 C       -0.081793637     2.798602352     7.701442343
 C       -0.547115261     5.260362689     7.722583676
 H       -1.249799339     1.429937404     4.936955905
 C       -3.205847635     1.646869234     5.853926979
 C       -2.682547887     2.148556333     3.463203383
 H      -10.823464319    12.804381298     4.491920913
 C       -9.271426582    14.261641556     4.059879356
 C      -11.727598512    14.603374963     3.686691693
 H      -12.896254499    12.380253953     1.672263835
 C      -12.033885032    10.749906127     0.518245487
 C      -12.442310066    10.714961527     2.986646396
 H       -3.283907377    13.142907031     3.067539987
 C       -4.903440343    14.454402736     2.436928357
 C       -5.155194407    12.057279558     3.093137949
 H       -2.686467174    14.747094081     0.035813408
 C       -1.126807643    13.948582991     1.307619535
 C       -1.496408459    13.307904673    -1.079952105
 H       -1.772184602    -0.835803258    -1.498247030
 C       -0.179822896    -0.254133695    -2.857345225
 C       -0.276207135    -2.402487704    -1.578059292
 H       -0.197380909    -1.986130619     1.432481556
 C       -0.111883122    -0.347841564     2.850620980
 C       -2.156068275    -1.062126050     1.580527977
 H       -0.410217991     1.783016122     7.444375508
 H        0.018144403     2.821643138     8.796143516
 H        0.930407873     2.934316873     7.298547450
 H       -1.218013074     6.093352827     7.469111061
 H        0.446783496     5.506153134     7.325536320
 H       -0.452021610     5.263567836     8.817578374
 H       -2.857999910     1.531931211     6.887871854
 H       -3.555647048     0.654561737     5.534512753
 H       -4.094147886     2.294089285     5.868432056
 H       -1.954152233     2.446656728     2.694045888
 H       -3.560205704     2.801417400     3.348105736
 H       -3.016788101     1.136279112     3.193359956
 H       -8.416455629    13.572926134     4.119652475
 H       -9.356552244    14.731069644     5.050126910
 H       -9.001751607    15.065075402     3.360566711
 H      -12.718937219    14.164924046     3.514850173
 H      -11.580461969    15.395540723     2.938340167
 H      -11.780051853    15.108056034     4.661919621
 H      -11.809417876    11.319391707    -0.394066480
 H      -13.009760910    10.272421748     0.353218801
 H      -11.300331790     9.933150308     0.584915347
 H      -12.590670900    11.270826058     3.921175683
 H      -11.695920194     9.930309391     3.176638988
 H      -13.389383334    10.192458463     2.788134899
 H       -4.264351469    15.263726097     2.063032692
 H       -5.181708142    14.730838507     3.463863829
 H       -5.835228844    14.465064132     1.852156831
 H       -4.758238655    11.031581770     3.107902794
 H       -6.145028945    12.018526672     2.612533322
 H       -5.334954545    12.328412308     4.142435049
 H       -1.532877699    14.325338090     2.254898119
 H       -0.390424818    14.694239492     0.973738904
 H       -0.556488770    13.035318998     1.523271000
 H       -2.181908520    13.190183703    -1.930767141
 H       -0.950663271    12.359827728    -0.969409998
 H       -0.753471125    14.058442975    -1.382971274
 H       -0.431579758     0.813048016    -2.930119800
 H       -0.663084092    -0.743313283    -3.715089327
 H        0.902651853    -0.347498230    -3.018847196
 H       -0.655882238    -2.964270392    -0.714873769
 H        0.806279068    -2.575298964    -1.640203836
 H       -0.714052541    -2.877073764    -2.468370355
 H        0.982234358    -0.351504670     2.934318624
 H       -0.486682199    -0.936881331     3.699968638
 H       -0.457249907     0.683741563     3.015850991
 H       -2.577031608    -1.612558241     0.729239527
 H       -2.661476401    -0.086374883     1.627472512
 H       -2.461763340    -1.611906538     2.482366275

