187   

Si        0.000000000     0.000000000     0.000000000
 C        1.865009978     0.000000000     0.000000000
 C       -0.675545470     1.712732071     0.000000000
 C        0.049143820     2.762513765     0.574849996
 C       -0.461157706     4.060332524     0.575653391
 C       -1.708142281     4.337922387     0.009196635
 C       -2.435887683     3.284321159    -0.559457656
 C       -1.929271672     1.987410348    -0.561226169
 C       -2.283108487     5.678632951    -0.013777057
 C       -1.694985001     6.774899035     0.494438048
 C       -2.275677790     8.113459954     0.468190339
 C       -1.556237521     9.173310354     1.034646552
 C       -2.072197711    10.467606192     1.031940004
 C       -3.314500935    10.734157029     0.446922995
 C       -4.034296321     9.676670317    -0.123467643
 C       -3.521125527     8.381495512    -0.108109148
Si       -4.039168353    12.424210775     0.417180976
 C       -4.906030307    12.732788052    -1.161967187
 C       -4.550031521    12.166976373    -2.322960506
 C       -5.228525338    12.399186347    -3.597344451
 C       -4.752497712    11.741909101    -4.740539804
 C       -5.354510074    11.922949979    -5.974273668
 C       -6.495676077    12.745365838    -6.098230570
 C       -6.967595676    13.411875434    -4.952635929
 C       -6.320995675    13.259384670    -3.732865077
 N       -7.093160009    12.916580176    -7.361801965
 C       -7.081156565    11.745702309    -8.262715153
 C       -8.356247374    13.671941365    -7.396267867
 C       -7.556697787    10.420115292    -7.638379471
 C       -9.088720816    10.256352845    -7.638933425
 N       -9.647757060     9.699314700    -6.385768967
 C       -9.634240487    10.642155129    -5.311648441
 C      -10.570521645    11.689029057    -5.392996570
 C      -10.625365550    12.646774799    -4.393731377
 C       -9.768068803    12.580506435    -3.284420095
 C       -8.857580832    11.524608362    -3.199347917
 C       -8.796635771    10.552091648    -4.193908540
 C       -9.102087191     8.371104806    -6.056691151
 C       -9.879513361    13.625786318    -2.265055139
 C       -9.133169179    13.696799845    -1.154851502
Si       -9.328357422    15.036242043     0.079058991
 C      -11.059421665    15.656071566     0.131670931
 C      -12.119343491    14.768337154    -0.097213490
 C      -13.436660561    15.216633235    -0.061994835
 C      -13.730094726    16.558402507     0.215967446
 C      -12.671802403    17.439637742     0.453371443
 C      -11.350817428    16.993874900     0.414667038
 C      -15.126804498    16.979687304     0.241557206
 C      -15.544918329    18.232314851     0.490196134
 C      -16.942508970    18.651249248     0.515242410
 C      -17.998485835    17.767825196     0.277477169
 C      -19.320640099    18.210941869     0.311181648
 C      -19.615684703    19.548673626     0.591890213
 C      -18.558161472    20.436617519     0.832281072
 C      -17.239441813    19.992667426     0.791783816
Si      -21.355285681    20.149095662     0.640073092
 C      -22.569218683    18.733017897     0.663931821
 C      -21.571343780    21.226642556     2.194328210
 C      -21.698891520    21.222744380    -0.893567848
 C       -8.846808840    14.361854506     1.787765434
 C       -8.156045970    16.464672163    -0.378658309
 C       -5.322237803    12.560519180     1.815626011
 C       -2.701667658    13.748929239     0.675932329
 C       -0.644237137    -0.929063115    -1.532070385
 C       -0.629638496    -0.903767060     1.552248448
 H        1.030293349     2.607151975     1.032221629
 H        0.124197867     4.860160190     1.025665242
 H       -3.410012639     3.478159484    -1.004393416
 H       -2.544571921     1.206767349    -1.016914554
 H       -3.266144916     5.745458351    -0.489440847
 H       -0.712601120     6.710426192     0.970960143
 H       -0.583918819     8.986603698     1.486435152
 H       -1.468890226    11.252702016     1.495491918
 H       -5.010640670     9.827920109    -0.597888065
 H       -4.100654455     7.575762280    -0.554756504
 H       -5.750139854    13.436284006    -1.101399465
 H       -3.708222865    11.464092644    -2.406294657
 H       -3.887575701    11.081662552    -4.662861590
 H       -4.938122417    11.432164825    -6.848788277
 H       -7.845605412    14.050002059    -4.999792309
 H       -6.701657465    13.804358941    -2.865846798
 H       -8.727469464    13.742003551    -8.431141849
 H       -8.164169999    14.706062121    -7.054284989
 H       -9.150340142    13.233902923    -6.766325308
 H       -9.327492173     7.683299233    -6.889890051
 H       -9.618269283     7.982150800    -5.161111513
 H       -8.016846432     8.349450845    -5.873653420
 H      -11.255691089    11.728696648    -6.237423817
 H      -11.353332184    13.455284085    -4.467260053
 H       -8.177312654    11.453762490    -2.348291622
 H       -8.074271326     9.745220915    -4.106331928
 H      -10.659513697    14.365807905    -2.500831217
 H       -8.352305528    12.953670665    -0.934486861
 H      -11.951045761    13.707404257    -0.312866027
 H      -14.246175718    14.513399146    -0.249350036
 H      -12.871830937    18.486691553     0.673058859
 H      -10.566923575    17.730654880     0.609729563
 H      -15.848118538    16.182596156     0.038044222
 H      -14.824362526    19.029635565     0.694389766
 H      -17.796299298    16.720258074     0.061620343
 H      -20.103728063    17.473248698     0.115318556
 H      -18.728453155    21.493111258     1.058126141
 H      -16.431692078    20.697504319     0.979773640
 H       -7.680192818    11.982365090    -9.168795857
 H       -6.030290304    11.628174702    -8.623324065
 H       -7.089408790     9.575359866    -8.175941168
 H       -7.174993673    10.345050598    -6.597783889
 H       -9.587365040    11.231506042    -7.832842666
 H       -9.403973295     9.581316592    -8.465482778
 H        2.262954696    -1.029693015    -0.039287220
 H        2.277364699     0.481905615     0.903501637
 H        2.258645096     0.542800979    -0.878901976
 H      -23.608415811    19.100682181     0.736539634
 H      -22.390199175    18.071967336     1.531363971
 H      -22.497785570    18.117311823    -0.249744311
 H      -20.840442998    22.079855688     2.083511723
 C      -22.980857271    21.828820890     2.332878951
 C      -21.218965530    20.470849733     3.488352194
 H      -22.790061310    21.503538056    -0.830453045
 C      -20.875174721    22.522271138    -0.935572614
 C      -21.479349497    20.456901445    -2.211168824
 H       -7.793694086    13.965334888     1.682575048
 C       -8.841484486    15.437956574     2.886610562
 C       -9.751582871    13.197830653     2.229800646
 H       -8.329330315    17.262222634     0.400670002
 C       -6.665358774    16.089323897    -0.343777597
 C       -8.484002486    17.063290431    -1.758552341
 H       -5.756670724    13.599802968     1.736298553
 C       -6.467093846    11.544460061     1.654483883
 C       -4.712219252    12.408372670     3.219154381
 H       -2.197754641    13.497297792     1.653585125
 C       -1.635589614    13.724272153    -0.433968666
 C       -3.267784553    15.175858308     0.791137333
 H       -1.769861640    -0.927231555    -1.446612121
 C       -0.269112391    -0.227334780    -2.849968249
 C       -0.182754479    -2.396121028    -1.598241892
 H       -0.163953383    -1.930834731     1.521677219
 C       -0.187092791    -0.217648780     2.857510272
 C       -2.159424461    -1.073093152     1.576360573
 H      -23.275873593    22.446778732     1.474998666
 H      -23.023069646    22.486079406     3.213707197
 H      -23.759101504    21.068443655     2.480787536
 H      -20.200142964    20.057497222     3.485645847
 H      -21.909876360    19.645472964     3.705378236
 H      -21.271142508    21.152412175     4.349378374
 H      -21.045812226    23.174295093    -0.069583989
 H      -21.150328392    23.112368100    -1.822010764
 H      -19.794134649    22.340272760    -1.014403291
 H      -22.099415893    19.555676200    -2.300554087
 H      -20.432342402    20.156558832    -2.361366018
 H      -21.741457413    21.095750065    -3.066727706
 H       -8.141009283    16.259453662     2.689191290
 H       -8.533009155    14.995452540     3.845045294
 H       -9.833350277    15.878658669     3.060823673
 H       -9.754193556    12.355209685     1.524579952
 H      -10.796335780    13.502902028     2.385916886
 H       -9.405798352    12.794928685     3.192459484
 H       -6.336400649    15.696483844     0.626882749
 H       -6.049121063    16.979267018    -0.538273315
 H       -6.392418531    15.357534674    -1.117846778
 H       -9.517727857    17.424784805    -1.844322533
 H       -8.312083119    16.356371687    -2.583633862
 H       -7.839637746    17.931217797    -1.957061886
 H       -6.988477123    11.621708437     0.689972811
 H       -7.228857673    11.707129237     2.431258170
 H       -6.132620187    10.503647775     1.769736006
 H       -3.945817518    13.160414389     3.445837700
 H       -4.266574551    11.417785939     3.388124543
 H       -5.493527794    12.525703118     3.984095059
 H       -1.138558584    12.750534507    -0.542818304
 H       -0.841787464    14.451433450    -0.212907526
 H       -2.039913515    13.998929756    -1.419525094
 H       -3.971555754    15.298516496     1.624331053
 H       -3.768309819    15.511861648    -0.128190459
 H       -2.451412229    15.889613696     0.973124160
 H       -0.609752392     0.816661556    -2.899654038
 H       -0.737401762    -0.744414599    -3.699498031
 H        0.811745969    -0.230794527    -3.044562321
 H       -0.483454366    -2.986264017    -0.722893937
 H        0.904317361    -2.499044092    -1.713831133
 H       -0.632128276    -2.891585770    -2.471168522
 H        0.902607012    -0.135466623     2.959089193
 H       -0.532973727    -0.799075286     3.724307418
 H       -0.611035818     0.790068573     2.975321390
 H       -2.546892462    -1.649574693     0.726805120
 H       -2.695584383    -0.113707353     1.604115604
 H       -2.463124144    -1.619537801     2.481110553

