187   

Si        0.000000000     0.000000000     0.000000000
 C        1.864893165     0.000000000     0.000000000
 C       -0.690303859     1.705675192     0.000000000
 C        0.109761474     2.813665592    -0.295554225
 C       -0.430212063     4.099898898    -0.290956427
 C       -1.778119928     4.306472366     0.011529572
 C       -2.579750635     3.194896862     0.305086709
 C       -2.045096628     1.910233724     0.295846972
 C       -2.389418807     5.629569764     0.029621509
 C       -1.748405734     6.780620490    -0.235245103
 C       -2.384657738     8.093247276    -0.210168692
 C       -3.737290208     8.255805680     0.097711345
 C       -4.321187585     9.520517732     0.114902944
 C       -3.565803188    10.650769894    -0.208330828
 C       -2.208218321    10.493979980    -0.519324652
 C       -1.622333544     9.230566940    -0.506029577
Si       -4.306807351    12.332764073    -0.194890464
 C       -3.835685751    13.223521932    -1.723238214
 C       -3.601458629    12.595648289    -2.883588786
 C       -3.222806895    13.266489390    -4.128821444
 C       -3.007418950    12.482531682    -5.273115887
 C       -2.647478463    13.063454744    -6.478048730
 C       -2.518215508    14.460486094    -6.572728207
 C       -2.731220290    15.249326684    -5.435616307
 C       -3.067690672    14.650127395    -4.225104939
 N       -2.143519534    14.989925370    -7.848474767
 C       -3.238155083    14.842083685    -8.839477397
 C       -1.591003622    16.356208778    -7.821451494
 C       -4.580523627    15.424440143    -8.359888989
 C       -5.774925604    15.078509321    -9.266011798
 N       -5.927623235    13.665119982    -9.662021015
 C       -5.709121163    12.679241217    -8.681650478
 C       -6.141017545    12.900871519    -7.355899794
 C       -5.931734199    11.938029211    -6.381822953
 C       -5.378392209    10.688451392    -6.701845482
 C       -4.989549270    10.457461087    -8.022770122
 C       -5.142104342    11.431730665    -9.001200944
 C       -5.410997828    13.387674268   -11.012939594
 C       -5.175305542     9.701507158    -5.639084185
 C       -4.655492259     8.482664938    -5.839235364
Si       -4.372633430     7.200022960    -4.564478280
 C       -5.548202207     7.237198712    -3.149843174
 C       -6.655854206     8.088711502    -3.120185619
 C       -7.524563947     8.087707689    -2.029361234
 C       -7.321610281     7.217368863    -0.956047750
 C       -6.219396132     6.353144505    -0.991228512
 C       -5.344189276     6.361590418    -2.073860534
 C       -8.204869795     7.182851635     0.204149437
 C       -9.291388725     7.958431913     0.357683687
 C      -10.177527720     7.927484508     1.515929935
 C       -9.972948605     7.067785930     2.598166313
 C      -10.845428304     7.070863797     3.686325811
 C      -11.939839072     7.940745460     3.718106092
 C      -12.146842483     8.804468590     2.633938979
 C      -11.277793214     8.794878195     1.546627181
Si      -13.100516121     7.957084759     5.146856404
 C      -12.402406937     7.031675804     6.608299020
 C      -13.441926981     9.769609067     5.618254036
 C      -14.744620738     7.145287984     4.636180426
 C       -4.495554603     5.506479122    -5.423857577
 C       -2.610102524     7.448867408    -3.882182922
 C       -6.206445166    12.204021546    -0.146778572
 C       -3.709573183    13.296195995     1.327371904
 C       -0.611266809    -0.916610620    -1.553027833
 C       -0.653894625    -0.911509637     1.538068431
 H        1.171985365     2.713285120    -0.534353025
 H        0.213155485     4.945936653    -0.525194499
 H       -3.633012290     3.333981416     0.542113221
 H       -2.718545297     1.081082703     0.530505082
 H       -3.453473933     5.634948135     0.288286889
 H       -0.686081099     6.785760928    -0.491464633
 H       -4.352492978     7.390259045     0.340384627
 H       -5.382466010     9.577537391     0.376728472
 H       -1.572243524    11.345818856    -0.780860851
 H       -0.563669337     9.128183167    -0.734386504
 H       -3.771140402    14.316344057    -1.633943529
 H       -3.667720292    11.501172060    -2.990064646
 H       -3.124280683    11.396566771    -5.218518017
 H       -2.470293323    12.444695028    -7.356439968
 H       -2.639494327    16.329505800    -5.486425809
 H       -3.221812792    15.278882925    -3.348818995
 H       -1.149830923    16.572302100    -8.810060897
 H       -0.770581693    16.402056783    -7.083866241
 H       -2.322507911    17.143476834    -7.586947076
 H       -5.738032015    14.181313893   -11.706020457
 H       -5.854364693    12.446087374   -11.385958664
 H       -4.313166199    13.310696963   -11.063320576
 H       -6.628446052    13.834722099    -7.091601462
 H       -6.225140395    12.151214237    -5.352167218
 H       -4.549757431     9.498722884    -8.301267504
 H       -4.806139850    11.213117105   -10.008952325
 H       -5.480366669    10.066082524    -4.648299230
 H       -4.342869948     8.164922425    -6.847502974
 H       -6.887224400     8.771590148    -3.944018117
 H       -8.374306810     8.767660316    -2.028266033
 H       -6.051459391     5.658381063    -0.170714682
 H       -4.494444450     5.670617947    -2.039830521
 H       -7.922667406     6.460199098     0.975074745
 H       -9.574050806     8.680057881    -0.414438506
 H       -9.126074513     6.384072572     2.600201221
 H      -10.634359045     6.374532545     4.502684160
 H      -12.985512665     9.505891740     2.603878835
 H      -11.456758312     9.470949904     0.712645846
 H       -2.922077884    15.310027162    -9.793755858
 H       -3.343234637    13.749409012    -9.038555013
 H       -4.784379646    15.058730404    -7.329955277
 H       -4.504383492    16.523574979    -8.269018175
 H       -6.719548369    15.365858819    -8.740777345
 H       -5.737296293    15.705986859   -10.184316895
 H        2.262350664    -1.029858740     0.043433440
 H        2.261227443     0.545838287     0.875606264
 H        2.274592291     0.476633823    -0.907729529
 H      -13.085731514     7.082596727     7.474821848
 H      -11.434334767     7.461683357     6.923651785
 H      -12.238254637     5.964673087     6.376913244
 H      -13.906437684    10.244188526     4.705360258
 C      -14.433114854     9.924397318     6.785333705
 C      -12.153648120    10.545465215     5.947564915
 H      -15.382724330     7.137630306     5.566762626
 C      -15.503349134     7.921690215     3.545056258
 C      -14.563479125     5.689317752     4.169288486
 H       -3.727537616     5.528863496    -6.250418911
 C       -4.171108079     4.313938619    -4.507247281
 C       -5.877988179     5.279961813    -6.062272173
 H       -2.583382904     6.912694052    -2.887511462
 C       -1.501400888     6.857294220    -4.768894328
 C       -2.302520341     8.934567577    -3.631617317
 H       -6.453521103    11.573193290     0.756131753
 C       -6.906515656    13.564215847     0.022042559
 C       -6.777368472    11.504423492    -1.393839955
 H       -4.211182897    14.305565036     1.273903572
 C       -4.116177115    12.630074569     2.653813588
 C       -2.186949742    13.522873876     1.328196395
 H       -0.106485922    -1.925356283    -1.530937216
 C       -2.133108881    -1.145426471    -1.575533693
 C       -0.201501030    -0.205208951    -2.855823493
 H       -1.778259005    -0.920698112     1.437653461
 C       -0.178261399    -2.372050538     1.634332951
 C       -0.304292381    -0.182243436     2.847935141
 H      -15.406571005     9.454524902     6.594381620
 H      -14.636799035    10.989980343     6.965803255
 H      -14.047089011     9.521841397     7.731242507
 H      -11.416851694    10.528616867     5.131707384
 H      -11.652030836    10.180272034     6.853554175
 H      -12.386871311    11.604384378     6.128626874
 H      -15.747943516     8.951939618     3.832876654
 H      -16.462608470     7.427823119     3.331580098
 H      -14.959664085     7.957225199     2.590414527
 H      -14.099434065     5.042647053     4.925029857
 H      -13.966815406     5.607131838     3.249305755
 H      -15.541858167     5.242207003     3.941851792
 H       -3.204893295     4.401130633    -3.992270254
 H       -4.120902841     3.388856424    -5.099206021
 H       -4.942524234     4.144931611    -3.742575417
 H       -6.157795819     6.056744036    -6.786882636
 H       -6.686473385     5.215810171    -5.320065674
 H       -5.888822202     4.327626613    -6.610716929
 H       -1.598689666     5.775653232    -4.925748788
 H       -0.522310078     7.007836894    -4.290711500
 H       -1.439023802     7.336317521    -5.754645183
 H       -3.006290927     9.406508082    -2.928286688
 H       -2.283832763     9.532292479    -4.553078982
 H       -1.307922000     9.042175858    -3.174755201
 H       -6.613462296    14.095631078     0.936241506
 H       -7.994625179    13.419549522     0.089649297
 H       -6.738595314    14.240196402    -0.827205015
 H       -6.365428766    10.496640046    -1.558914881
 H       -6.617910860    12.081186932    -2.316124259
 H       -7.863637666    11.376960167    -1.288504508
 H       -5.201817767    12.513205619     2.768603552
 H       -3.782054576    13.244285558     3.502251532
 H       -3.658453756    11.640083214     2.793826037
 H       -1.820424570    14.032119155     0.426702917
 H       -1.617488934    12.588980290     1.439472615
 H       -1.901326252    14.158174285     2.178609375
 H       -2.499705588    -1.723870111    -0.718126735
 H       -2.413184953    -1.717253039    -2.472337979
 H       -2.705195874    -0.207932568    -1.620426365
 H        0.883135536    -0.071877204    -2.957921763
 H       -0.670577049     0.782937028    -2.968057757
 H       -0.520771098    -0.797995313    -3.724989928
 H       -0.450917018    -2.976833771     0.759842581
 H       -0.642831281    -2.861316257     2.502850048
 H        0.906923554    -2.460384471     1.777058511
 H       -0.665593720     0.855743092     2.876225309
 H        0.774125493    -0.162488517     3.053995658
 H       -0.772859985    -0.693623534     3.700876661

