187   

Si        0.000000000     0.000000000     0.000000000
 C        1.865131327     0.000000000     0.000000000
 C       -0.671768236     1.714358427     0.000000000
 C        0.077683719     2.772266151    -0.525709555
 C       -0.430778149     4.070808943    -0.525876558
 C       -1.700271508     4.341099086    -0.007900728
 C       -2.452508117     3.279391461     0.511777244
 C       -1.947690552     1.981785072     0.513027704
 C       -2.273106119     5.682975643     0.013029296
 C       -1.659738358     6.784459303    -0.452154078
 C       -2.233148209     8.126139805    -0.430933783
 C       -3.503492061     8.394021836     0.087840712
 C       -4.013405999     9.691339854     0.088533752
 C       -3.258662451    10.751020299    -0.426683861
 C       -1.986732645    10.486709505    -0.948585771
 C       -1.483501961     9.187969760    -0.953320027
Si       -3.930602341    12.462417324    -0.426090551
 C       -2.574337941    13.666905038    -0.658106606
 C       -2.559126974    14.665830945    -1.549710064
 C       -1.450457298    15.610892517    -1.703699510
 C       -1.553579715    16.617370557    -2.676681462
 C       -0.533750166    17.535618567    -2.862461586
 C        0.615655706    17.492436058    -2.047016971
 C        0.724944935    16.485602659    -1.076883365
 C       -0.290799420    15.546878865    -0.927907938
 N        1.620690139    18.462078197    -2.291619746
 C        1.200652939    19.864240621    -2.095305014
 C        2.953787586    18.161368192    -1.748479478
 C        1.340148793    20.428422288    -0.670485125
 C        0.414426844    19.774696315     0.372338103
 N       -0.996690637    20.188978111     0.321474233
 C       -1.279324186    21.560402034     0.306769523
 C       -0.465227559    22.448417862     1.045729453
 C       -0.729485797    23.807588246     1.043054001
 C       -1.832170650    24.332128601     0.352736156
 C       -2.653653857    23.448604689    -0.352277288
 C       -2.394615500    22.084610919    -0.375829439
 C       -1.866575906    19.304932363    -0.464041783
 C       -2.063647517    25.776501213     0.383883278
 C       -3.080996473    26.390156920    -0.235895939
Si       -3.370328176    28.194590938    -0.197088273
 C       -2.763512693    28.957737454     1.362969302
 C       -2.809252514    28.227581320     2.558042353
 C       -2.353873529    28.790945900     3.746983777
 C       -1.854431081    30.099818624     3.775284449
 C       -1.818156114    30.828504684     2.583296406
 C       -2.269350321    30.265803614     1.389865989
 C       -1.388820206    30.646197083     5.045668187
 C       -0.884996472    31.881228504     5.208953974
 C       -0.419352644    32.427717780     6.479291870
 C       -0.455146215    31.700149547     7.671553016
 C        0.000669296    32.262203727     8.864088869
 C        0.497727085    33.568947299     8.890412168
 C        0.534198155    34.301002196     7.695761315
 C        0.083444733    33.735651880     6.506367204
Si        1.103088300    34.325500562    10.455656102
 C        0.609789767    33.313162253    11.942817563
 C        3.001650957    34.453540800    10.406195817
 C        0.380983533    36.081941567    10.586478853
 C       -2.507337503    28.987474135    -1.696200592
 C       -5.242480688    28.503210210    -0.337167650
 C       -5.234141056    12.624100640    -1.800982993
 C       -4.760788249    12.815284551     1.249337532
 C       -0.629758772    -0.904858895    -1.551415189
 C       -0.648204477    -0.923413217     1.533649810
 H        1.077035332     2.623171390    -0.944025038
 H        0.174087507     4.876898143    -0.937227236
 H       -3.444257216     3.467518226     0.918765784
 H       -2.581904229     1.194298523     0.929421967
 H       -3.274955648     5.745458875     0.447967319
 H       -0.658084087     6.721949764    -0.887555776
 H       -4.107245360     7.586347952     0.497317574
 H       -5.012858920     9.839512418     0.506872118
 H       -1.355945865    11.276959466    -1.368267051
 H       -0.494373409     8.999640140    -1.366707077
 H       -1.730043481    13.509456908     0.034262197
 H       -3.386219062    14.853472644    -2.246803090
 H       -2.441798921    16.669952434    -3.307027545
 H       -0.605608887    18.285380678    -3.648124453
 H        1.602729209    16.423135727    -0.440561170
 H       -0.178747907    14.761567005    -0.178642396
 H        3.674450813    18.897387680    -2.146465669
 H        3.273550497    17.166714357    -2.108085646
 H        3.013604929    18.173539511    -0.649093833
 H       -1.568740275    18.249819257    -0.317174912
 H       -1.848378958    19.513044655    -1.546326216
 H       -2.905327242    19.395342056    -0.096694009
 H        0.371856243    22.066700949     1.622325621
 H       -0.076284227    24.478427647     1.603126267
 H       -3.518345920    23.830358910    -0.897098097
 H       -3.055120654    21.434922717    -0.940056202
 H       -1.316947938    26.320928768     0.979846734
 H       -3.810385097    25.823179028    -0.833450470
 H       -3.193846079    27.202478535     2.596655109
 H       -2.390552192    28.205982174     4.664151029
 H       -1.435711899    31.847357354     2.577669202
 H       -2.216096912    30.885170534     0.490477817
 H       -1.476637316    29.964010611     5.896435295
 H       -0.797399533    32.563309960     4.358243474
 H       -0.840859925    30.682343599     7.678957421
 H       -0.051915108    31.643561991     9.764242333
 H        0.911280141    35.326881065     7.655954991
 H        0.121091366    34.319198972     5.588477602
 H        1.823285789    20.477548158    -2.791078114
 H        0.148915819    19.982987877    -2.439425925
 H        2.387910720    20.336684496    -0.327947317
 H        1.144207517    21.521298320    -0.709316029
 H        0.465602609    18.665171961     0.285747857
 H        0.790054806    20.012211502     1.397411707
 H        2.263182312    -1.028964697     0.055159744
 H        2.259036619     0.556201609     0.870319566
 H        2.276937942     0.467385491    -0.911335290
 H        0.941685504    33.794767447    12.879967723
 H        1.051487607    32.301694679    11.914369240
 H       -0.488252210    33.200664410    11.998724622
 H        3.305035351    34.867898622    11.410972232
 C        3.680627153    33.082801307    10.230365587
 C        3.528700961    35.407348453     9.319227580
 H        0.762589998    36.641010643     9.683007225
 C       -1.157389819    36.091900104    10.530496124
 C        0.842402852    36.843907166    11.841546343
 H       -2.762681571    30.085732065    -1.660778634
 C       -0.975846123    28.848540240    -1.628631028
 C       -2.999874882    28.429715743    -3.043574330
 H       -5.564995980    28.028822997    -1.308456591
 C       -6.029354142    27.835975975     0.805196706
 C       -5.607132117    29.997003196    -0.389983071
 H       -5.530262552    13.712932686    -1.820261604
 C       -4.673726334    12.253018145    -3.186185948
 C       -6.503158150    11.792282771    -1.543456541
 H       -5.610070397    12.077415140     1.336769779
 C       -3.809929899    12.587482728     2.437804165
 C       -5.349719607    14.233804544     1.341268295
 H       -0.164398338    -1.932036555    -1.519331492
 C       -2.159607011    -1.073297277    -1.576738546
 C       -0.186134082    -0.220324107    -2.857167978
 H       -1.773382060    -0.925546730     1.442561597
 C       -0.181742110    -2.388338121     1.609747529
 C       -0.282143895    -0.212804214     2.849317548
 H        3.420123343    32.362225845    11.016219059
 H        4.773579295    33.196118713    10.267914405
 H        3.453163551    32.615034133     9.261610830
 H        3.155851679    36.434232470     9.422088021
 H        3.296875074    35.063720915     8.301275120
 H        4.625085210    35.472606942     9.376932695
 H       -1.561601500    35.612031991     9.627601125
 H       -1.527869864    37.126852464    10.519726586
 H       -1.622036267    35.606423581    11.398880399
 H        1.933269466    36.941400349    11.914674350
 H        0.483776377    36.389241632    12.774497571
 H        0.442905902    37.868448215    11.826334529
 H       -0.537687504    29.280600028    -0.718165448
 H       -0.510800416    29.374391154    -2.474103927
 H       -0.639274423    27.803477885    -1.692121934
 H       -4.077416882    28.563151491    -3.202835576
 H       -2.770840705    27.362618795    -3.173141203
 H       -2.500770199    28.953052350    -3.871803629
 H       -5.864131591    26.751960431     0.873964685
 H       -7.108775211    27.974351105     0.651093215
 H       -5.801913165    28.269277130     1.789961345
 H       -5.158949442    30.525090379    -1.241177710
 H       -5.327515647    30.538686049     0.525117094
 H       -6.695406488    30.115234070    -0.494251547
 H       -3.783991223    12.830716859    -3.471347394
 H       -5.428056310    12.443969410    -3.962380992
 H       -4.411832864    11.187884530    -3.267496445
 H       -7.021902831    12.063623589    -0.615259187
 H       -6.308552093    10.710763427    -1.517810348
 H       -7.227328356    11.951562400    -2.355841475
 H       -3.379355413    11.576366724     2.463636083
 H       -4.354502239    12.712297062     3.384758094
 H       -2.977810639    13.304171325     2.464796634
 H       -6.104701160    14.442772337     0.572538954
 H       -4.584074685    15.020597010     1.279068952
 H       -5.852235638    14.370425358     2.309710123
 H       -2.548614530    -1.647536008    -0.726358570
 H       -2.462471029    -1.621728369    -2.480567792
 H       -2.694918657    -0.113558679    -1.607799329
 H        0.903513243    -0.134792106    -2.956547620
 H       -0.612747394     0.785887892    -2.977988185
 H       -0.528082883    -0.804571566    -3.723572894
 H       -0.469924630    -2.982661966     0.733067682
 H       -0.638970914    -2.882831666     2.479182863
 H        0.904413216    -2.486164991     1.737939478
 H       -0.627809758     0.829936993     2.891410234
 H        0.797744907    -0.210428046     3.049095503
 H       -0.752459507    -0.727160920     3.699443874

