187   

Si        0.000000000     0.000000000     0.000000000
 C        1.865360505     0.000000000     0.000000000
 C       -0.687063463     1.707510016     0.000000000
 C        0.134568876     2.822750320     0.190152511
 C       -0.404046851     4.109678793     0.187041412
 C       -1.774314855     4.310054727     0.002470184
 C       -2.596924218     3.190988342    -0.185666157
 C       -2.061780832     1.906198327    -0.188869008
 C       -2.383912794     5.635547404    -0.008582130
 C       -1.715136112     6.789863101     0.153464877
 C       -2.331993898     8.112329277     0.141199719
 C       -1.519207291     9.238931927     0.322262003
 C       -2.065227247    10.520325433     0.317773225
 C       -3.439044561    10.705379965     0.121981846
 C       -4.253143636     9.581237750    -0.058344532
 C       -3.704915548     8.299862426    -0.043147719
Si       -4.184755931    12.386197357     0.111649719
 C       -5.655705362    12.480087610    -0.971595117
 C       -5.830801819    11.732766541    -2.069560871
 C       -7.008899429    11.809181164    -2.935587327
 C       -7.074744744    10.971099345    -4.060140390
 C       -8.165959548    11.003734674    -4.911029541
 C       -9.223009266    11.908266425    -4.675482923
 C       -9.162968023    12.743808832    -3.549293795
 C       -8.075195664    12.674414696    -2.684873179
 N      -10.313940370    11.900247587    -5.575498084
 C       -9.957764991    12.068355529    -7.003869958
 C      -11.499744797    12.675795481    -5.176356685
 C       -8.772228761    13.002536738    -7.295868371
 C       -8.999145954    14.436133939    -6.783950170
 N       -7.761005423    15.232295122    -6.726235898
 C       -7.107885567    15.505033553    -7.939910344
 C       -7.845194466    15.602551281    -9.139773133
 C       -7.204109528    15.871385695   -10.338193973
 C       -5.822235607    16.102872436   -10.387065875
 C       -5.098191916    16.038716200    -9.193241855
 C       -5.721755973    15.754018577    -7.985985565
 C       -6.909978343    14.884380056    -5.574687667
 C       -5.197514395    16.382092037   -11.680504605
 C       -3.889371309    16.618156844   -11.850060640
Si       -3.108799261    16.966981278   -13.465792291
 C       -4.264674077    17.809651916   -14.622605761
 C       -5.231727230    18.690348996   -14.119710343
 C       -6.114088601    19.336184464   -14.981314559
 C       -6.044114394    19.130574014   -16.365631446
 C       -5.072771996    18.258723301   -16.864931149
 C       -4.190667779    17.606154369   -16.004186883
 C       -6.990922108    19.830223880   -17.227658654
 C       -7.035149386    19.718356405   -18.566082661
 C       -7.982336314    20.418399138   -19.427443503
 C       -8.953514643    21.290106624   -18.928191872
 C       -9.839536268    21.938911153   -19.788105114
 C       -9.768552480    21.734323663   -21.169534178
 C       -8.794838692    20.861007499   -21.673042249
 C       -7.915712611    20.210419270   -20.811826089
Si      -10.930156124    22.582684944   -22.318224447
 C      -11.871461416    23.945789552   -21.460389185
 C       -9.921986652    23.291063488   -23.769183463
 C      -12.177681080    21.320477727   -23.006718506
 C       -1.607534541    18.098522517   -13.173467503
 C       -2.501527878    15.329257554   -14.220359655
 C       -4.714460340    12.832638054     1.882746518
 C       -2.911925574    13.665763003    -0.490390332
 C       -0.659290083    -0.898005125    -1.543538548
 C       -0.599216378    -0.932335501     1.548129499
 H        1.213312429     2.728687309     0.342249060
 H        0.257507158     4.961651952     0.332705507
 H       -3.667078214     3.324964519    -0.332369853
 H       -2.752082190     1.072228709    -0.345090218
 H       -3.467258527     5.637983057    -0.163135221
 H       -0.632523448     6.789921534     0.308394045
 H       -0.448183155     9.114867374     0.470022676
 H       -1.382186415    11.360578355     0.468743193
 H       -5.334742204     9.665583344    -0.210381551
 H       -4.360077983     7.441415105    -0.180701016
 H       -6.404373951    13.224885181    -0.661544952
 H       -5.094265447    10.989255076    -2.406461423
 H       -6.258683223    10.275706896    -4.262972033
 H       -8.218612083    10.326690394    -5.760624456
 H       -9.960577301    13.448350733    -3.336041055
 H       -8.057318239    13.321532894    -1.806851663
 H      -12.337294538    12.417196299    -5.848383145
 H      -11.360812022    13.767745250    -5.196452398
 H      -11.808010175    12.374827281    -4.158793078
 H       -7.532507084    14.598784938    -4.707611615
 H       -6.326867891    15.773879225    -5.275759601
 H       -6.218335275    14.049483840    -5.775748253
 H       -8.921509245    15.460594333    -9.135542175
 H       -7.790880169    15.917340641   -11.256699998
 H       -4.021816956    16.216639276    -9.201895544
 H       -5.121728769    15.717214793    -7.082292413
 H       -5.914532022    16.387979425   -12.513935656
 H       -3.191196305    16.597678024   -10.999761909
 H       -5.328980216    18.893639754   -13.047540709
 H       -6.863975985    20.010534767   -14.571869914
 H       -4.996521192    18.081987727   -17.936008177
 H       -3.452973555    16.936191020   -16.453911391
 H       -7.694978943    20.480739989   -16.700268174
 H       -6.331463829    19.068052838   -19.093744056
 H       -9.027025102    21.470191284   -17.857230494
 H      -10.578342581    22.608014856   -19.338368777
 H       -8.691651589    20.663166718   -22.743713934
 H       -7.167507676    19.534552266   -21.221478834
 H       -9.719828397    11.047122215    -7.390031135
 H      -10.853930042    12.408163617    -7.566863544
 H       -7.845902829    12.591213475    -6.845287476
 H       -8.575231494    13.019513425    -8.385948740
 H       -9.740889883    14.969087394    -7.418982595
 H       -9.436287892    14.420878359    -5.758849244
 H        2.262603086    -1.030346533    -0.031162351
 H        2.274044636     0.486948599     0.902806070
 H        2.262771469     0.534924561    -0.881590553
 H      -12.532734375    24.478304444   -22.167074991
 H      -11.181213119    24.691683705   -21.026015426
 H      -12.503585824    23.555200434   -20.643805254
 H       -9.422055353    22.405613707   -24.259603246
 C      -10.785853086    23.992573424   -24.832286641
 C       -8.817057174    24.256403645   -23.303197400
 H      -12.893158015    21.916637876   -23.643851782
 C      -11.537566589    20.238646751   -23.894785017
 C      -12.990170532    20.628958742   -21.896505902
 H       -0.925171673    17.537318036   -12.472040755
 C       -0.822665268    18.405825656   -14.460660020
 C       -2.001086514    19.424757526   -12.498469841
 H       -1.977182030    15.601476235   -15.181385394
 C       -1.494374558    14.586042284   -13.324599567
 C       -3.662818173    14.378038387   -14.560794824
 H       -5.149453835    13.872018759     1.827215016
 C       -5.803189806    11.886334214     2.419703303
 C       -3.539583200    12.858496229     2.875821639
 H       -2.055949027    13.627033391     0.243468588
 C       -2.362091528    13.327353914    -1.887688221
 C       -3.459807457    15.104047948    -0.505036049
 H       -1.784135739    -0.890628469    -1.447925535
 C       -0.293966551    -0.169862981    -2.849779880
 C       -0.203990627    -2.364744407    -1.642447887
 H       -0.078697666    -1.933211351     1.518547343
 C       -0.196799033    -0.223123190     2.854292388
 C       -2.116705422    -1.187574658     1.574238680
 H      -11.555175426    23.341118442   -25.266503128
 H      -10.154759421    24.322929364   -25.670239970
 H      -11.285906948    24.893133567   -24.451915315
 H       -8.122457894    23.804176827   -22.580719112
 H       -9.212386500    25.175552920   -22.850892813
 H       -8.205531338    24.571715691   -24.160618800
 H      -11.000226194    20.646204848   -24.760394962
 H      -12.317046844    19.578168665   -24.301927797
 H      -10.844918911    19.588291244   -23.342171199
 H      -13.548884768    21.329846556   -21.263038224
 H      -12.368184302    20.007279367   -21.236380826
 H      -13.736506388    19.954572101   -22.340234158
 H       -0.423136561    17.509528245   -14.951854457
 H        0.044505424    19.041479298   -14.229953521
 H       -1.416801656    18.957757430   -15.203125624
 H       -2.520517905    19.289300229   -11.539860145
 H       -2.638906021    20.054847714   -13.135080262
 H       -1.102285044    20.018931374   -12.281115148
 H       -0.595076823    15.173131027   -13.099149321
 H       -1.145838596    13.673188292   -13.828757095
 H       -1.931276314    14.260700347   -12.369942033
 H       -4.399679028    14.816253809   -15.248120415
 H       -4.207782947    14.034092837   -13.669561363
 H       -3.279232906    13.474760110   -15.055313189
 H       -6.704024550    11.855288036     1.791854901
 H       -6.132594320    12.216612803     3.415140119
 H       -5.448376410    10.852571152     2.541807756
 H       -2.760021223    13.583923832     2.610528039
 H       -3.057753264    11.877278816     2.994943305
 H       -3.898127013    13.145671411     3.875082168
 H       -1.897535164    12.332990241    -1.944929181
 H       -1.581979654    14.047637324    -2.171478438
 H       -3.130163781    13.378158173    -2.673107312
 H       -3.804749727    15.449485988     0.477848544
 H       -4.285262634    15.239683583    -1.217878875
 H       -2.669436980    15.803330535    -0.814375110
 H       -0.639759376     0.873474253    -2.875964794
 H       -0.767484788    -0.671110828    -3.705984871
 H        0.785199390    -0.166027533    -3.052223754
 H       -0.494826091    -2.970002728    -0.774152755
 H        0.881179460    -2.468517925    -1.774182234
 H       -0.666262021    -2.842673408    -2.518463986
 H        0.886062600    -0.075067037     2.955463631
 H       -0.506555223    -0.825088716     3.720612680
 H       -0.678831731     0.757961862     2.973405468
 H       -2.480510010    -1.748387196     0.704127878
 H       -2.703463137    -0.261400588     1.649554707
 H       -2.380391077    -1.788156507     2.457172529

