187   

Si        0.000000000     0.000000000     0.000000000
 C        1.865059304     0.000000000     0.000000000
 C       -0.678564159     1.711242388     0.000000000
 C        0.073996400     2.779287244     0.499747953
 C       -0.443725341     4.074333912     0.497966254
 C       -1.724672350     4.330871882     0.002044707
 C       -2.479719525     3.258900406    -0.492072196
 C       -1.966487041     1.964792278    -0.489914823
 C       -2.308776786     5.667674160    -0.020691428
 C       -1.697817471     6.779934185     0.421711218
 C       -2.286999280     8.114841214     0.396523784
 C       -3.569872094     8.361083427    -0.101924438
 C       -4.095857628     9.651813992    -0.107901145
 C       -3.346987961    10.726468526     0.385198751
 C       -2.063095684    10.483383409     0.887496734
 C       -1.542261969     9.191415451     0.894941489
Si       -4.046797056    12.427770913     0.374588172
 C       -2.726637415    13.654885519     0.676211532
 C       -2.771143550    14.643588864     1.578678884
 C       -1.693192786    15.610168668     1.793602284
 C       -1.858699952    16.602312707     2.771122389
 C       -0.870468088    17.541163172     3.014867028
 C        0.312316664    17.551408208     2.243082722
 C        0.478417708    16.556771184     1.260742934
 C       -0.502401494    15.593294076     1.062841461
 N        1.304574992    18.511621820     2.504572037
 C        0.847850158    19.846491916     2.928945341
 C        2.451046190    18.562029415     1.582976158
 C       -0.094407899    20.531489607     1.917622667
 C       -0.048387237    22.065766991     2.041801756
 N        0.807789002    22.737978127     1.036018096
 C        2.145380795    22.254811770     1.018926809
 C        2.915229292    22.438439172     2.185087135
 C        4.224575878    21.990235196     2.231420272
 C        4.821044994    21.388188294     1.112243606
 C        4.061914129    21.232898651    -0.048944086
 C        2.740050361    21.663411881    -0.104291363
 C        0.150004818    22.837171616    -0.279208452
 C        6.208539748    20.932528935     1.216642929
 C        6.884125616    20.345154240     0.219934159
Si        8.618484336    19.781099496     0.366242070
 C        9.005106950    19.287932411     2.095319795
 C        8.024894491    18.631702937     2.852780129
 C        8.287758550    18.246115856     4.163971428
 C        9.537082385    18.495660856     4.747928634
 C       10.514236085    19.143498239     3.987576724
 C       10.253228366    19.534436158     2.674254583
 C        9.763319644    18.071914849     6.125661190
 C       10.909124218    18.251683317     6.804490568
 C       11.132700920    17.826839121     8.182490511
 C       10.153061399    17.179271054     8.939584149
 C       10.409161989    16.790007051    10.254314993
 C       11.655358657    17.036157793    10.839206210
 C       12.639607984    17.685726632    10.081747450
 C       12.379272355    18.077718091     8.771619716
Si       12.008052540    16.528252372    12.573290731
 C       10.726171636    15.332795669    13.211106308
 C       13.734849801    15.728683267    12.624069594
 C       12.022358265    18.068519892    13.691556673
 C        8.858201663    18.277444440    -0.773050942
 C        9.773957244    21.177473205    -0.207991764
 C       -4.812171726    12.768041135    -1.334557926
 C       -5.411181287    12.557840889     1.693436864
 C       -0.645410941    -0.921947699    -1.536108298
 C       -0.627319091    -0.910108761     1.549473526
 H        1.082704520     2.640891933     0.898754372
 H        0.163407335     4.888656499     0.889347879
 H       -3.480416550     3.436419060    -0.881393255
 H       -2.603756647     1.169028829    -0.885301417
 H       -3.319200158     5.716955778    -0.437242612
 H       -0.687735597     6.732569069     0.838882191
 H       -4.170406166     7.541739742    -0.492198566
 H       -5.103524122     9.782886736    -0.511945881
 H       -1.436477860    11.286024403     1.290058490
 H       -0.543459344     9.020217175     1.292114421
 H       -1.850638352    13.524699706     0.019483941
 H       -3.632104728    14.805289121     2.240762478
 H       -2.775423702    16.629944173     3.360839422
 H       -1.012675909    18.272054475     3.805456112
 H        1.374764222    16.524864519     0.649656589
 H       -0.340227191    14.823116308     0.306957497
 H        3.165921596    19.339904658     1.912655517
 H        2.171346077    18.786317356     0.541241367
 H        2.989936376    17.598343996     1.617114454
 H       -0.789551707    23.405413237    -0.160823597
 H       -0.087076484    21.867892492    -0.744558462
 H        0.790042007    23.417505219    -0.966826041
 H        2.476801643    22.943161718     3.043601975
 H        4.804900867    22.124190768     3.145503132
 H        4.504730375    20.771421468    -0.932517442
 H        2.175658596    21.520601462    -1.020944413
 H        6.648878564    21.111619312     2.208371776
 H        6.427313429    20.185726185    -0.768141385
 H        7.031573702    18.408127597     2.448263714
 H        7.512498249    17.742645517     4.739084745
 H       11.493063755    19.348767892     4.416993910
 H       11.057447637    20.036208985     2.129448270
 H        8.909385062    17.576177881     6.597054599
 H       11.763463985    18.746670149     6.333680809
 H        9.176096995    16.972118786     8.506542387
 H        9.603254768    16.287253372    10.796230766
 H       13.631957227    17.904265306    10.486346815
 H       13.155699814    18.582477520     8.199900092
 H        0.347825312    19.748264524     3.918885216
 H        1.750124086    20.475555421     3.112223574
 H        0.173927976    20.224094899     0.888386426
 H       -1.127001498    20.163488723     2.061759442
 H       -1.074154078    22.488121499     1.953735273
 H        0.313700967    22.370644170     3.049309785
 H        2.262696418    -1.029270651    -0.051707127
 H        2.277067913     0.470473757     0.909710990
 H        2.259008519     0.553113953    -0.872232874
 H       10.969251892    14.997528599    14.235269295
 H       10.671769113    14.432758212    12.571914044
 H        9.720247652    15.786909821    13.240175483
 H       14.455569436    16.526496991    12.279913443
 C       14.163954508    15.283079634    14.033313536
 C       13.859629067    14.534514069    11.660701542
 H       12.190734850    17.683611886    14.738793988
 C       13.152648739    19.059570218    13.360852120
 C       10.681437522    18.824972452    13.670752144
 H        8.626402795    18.637165642    -1.817009818
 C       10.298248273    17.736434471    -0.762057880
 C        7.889423978    17.129195429    -0.437570245
 H       10.823106924    20.772414200    -0.114532496
 C        9.552383129    21.584273794    -1.675812817
 C        9.661983092    22.430701033     0.678694488
 H       -5.636155035    12.007941526    -1.462565746
 C       -5.435470892    14.170372922    -1.447020998
 C       -3.804517957    12.571986887    -2.481289275
 H       -5.718588172    13.643733148     1.711947763
 C       -6.660890379    11.717825016     1.374883167
 C       -4.906416010    12.176768933     3.097333889
 H       -1.770214215    -0.933961899    -1.441667155
 C       -0.289776589    -0.201740980    -2.849428698
 C       -0.166583857    -2.382331184    -1.620984963
 H       -0.159711316    -1.936175064     1.514515329
 C       -0.184635416    -0.227681365     2.856650718
 C       -2.156744699    -1.082593195     1.575514213
 H       14.167382142    16.100470565    14.765936390
 H       15.191097418    14.890920480    14.006113689
 H       13.538468420    14.475370904    14.435994836
 H       13.622402839    14.791341779    10.618288842
 H       13.223917167    13.685348493    11.944558634
 H       14.892939540    14.159318573    11.656690752
 H       14.154871426    18.619721604    13.439547930
 H       13.131819803    19.901914507    14.067768965
 H       13.054379975    19.499916875    12.358564112
 H        9.827090969    18.207650983    13.976821163
 H       10.447343161    19.251895385    12.684880704
 H       10.715362749    19.671206760    14.371938334
 H       11.044681350    18.475869779    -1.079374879
 H       10.388186064    16.891168848    -1.459833872
 H       10.604551989    17.353523016     0.222191218
 H        6.831835379    17.422944251    -0.479246195
 H        8.074917329    16.690291965     0.553575888
 H        8.011018256    16.310752791    -1.161415504
 H        9.699339619    20.759087439    -2.384176510
 H       10.273187543    22.364250487    -1.961715650
 H        8.555095103    22.008996374    -1.856415273
 H        9.861234232    22.235234161     1.741453226
 H        8.676044599    22.913538489     0.612433122
 H       10.396097249    23.184789030     0.361525988
 H       -6.233434988    14.351636770    -0.715568289
 H       -5.891360709    14.301425551    -2.438662816
 H       -4.696103234    14.977021671    -1.339444803
 H       -3.348969833    11.571628416    -2.493489804
 H       -2.989529572    13.308493166    -2.465840554
 H       -4.308988819    12.690331567    -3.450666148
 H       -7.134578926    11.983898179     0.421577763
 H       -7.425192357    11.874094344     2.150112023
 H       -6.458038141    10.637791893     1.361553770
 H       -4.036821005    12.762268911     3.426415027
 H       -4.633954433    11.114387608     3.177570100
 H       -5.695605034    12.349288394     3.842322060
 H       -0.648978271     0.836675561    -2.886513508
 H       -0.754488858    -0.718412160    -3.701138097
 H        0.789691974    -0.184604588    -3.050468937
 H       -0.448082189    -2.983869253    -0.747080779
 H        0.920151187    -2.469966089    -1.751590129
 H       -0.620942732    -2.875897426    -2.492387729
 H        0.904914853    -0.140931010     2.956120467
 H       -0.525992010    -0.814157853     3.721776766
 H       -0.612398921     0.777832626     2.979440667
 H       -2.545319101    -1.652419459     0.722048290
 H       -2.694138972    -0.124225292     1.613149602
 H       -2.457166117    -1.637409658     2.476232446

