187   

Si        0.000000000     0.000000000     0.000000000
 C        1.866212752     0.000000000     0.000000000
 C       -0.678808565     1.708834868     0.000000000
 C        0.143096792     2.797726731    -0.306150991
 C       -0.370797619     4.093494700    -0.306353464
 C       -1.715507267     4.327423997    -0.008725192
 C       -2.539480164     3.235173219     0.294912086
 C       -2.028471843     1.940318075     0.300166074
 C       -2.286420146     5.669274493     0.000276675
 C       -1.600518248     6.793135560    -0.268957058
 C       -2.170654828     8.135488070    -0.260187183
 C       -1.341759718     9.224581469    -0.560135658
 C       -1.844999146    10.523250393    -0.563145504
 C       -3.196711721    10.761032632    -0.284967205
 C       -4.027866258     9.673425033     0.004719330
 C       -3.518885535     8.376640375     0.016055445
Si       -3.873976439    12.471843787    -0.285763714
 C       -5.351068901    12.595275011     0.787456825
 C       -5.532687881    11.831397777     1.873155131
 C       -6.698157170    11.900589488     2.754479757
 C       -6.752599942    11.037700689     3.855977149
 C       -7.832845682    11.057898193     4.726641906
 C       -8.858972973    12.002512532     4.561894616
 C       -8.799210964    12.881243511     3.463017805
 C       -7.744395953    12.809652948     2.564633046
 N       -9.988596150    12.077150391     5.415002006
 C      -10.152528104    11.008939173     6.411257687
 C      -10.262721009    13.421370468     5.956127558
 C       -9.254831100    11.123929767     7.658847331
 C       -9.175306644     9.795448117     8.434973778
 N       -8.081265857     8.894942399     8.034551501
 C       -8.203194912     8.150899823     6.850949774
 C       -9.476020739     7.769007541     6.374860942
 C       -9.597785862     7.034701427     5.206903153
 C       -8.468525030     6.561980899     4.522708444
 C       -7.207030559     6.902733006     5.016867457
 C       -7.067929087     7.688152331     6.154589964
 C       -6.748654366     9.435204395     8.350919196
 C       -8.668736803     5.792492538     3.294720840
 C       -7.688969484     5.279449897     2.538386249
Si       -7.979105767     4.321262891     1.006975406
 C       -7.037398004     2.740465943     1.017574299
 C       -6.545939035     2.212704773     2.216069761
 C       -5.832235938     1.014369490     2.222985958
 C       -5.611276386     0.308043661     1.037724246
 C       -6.108124781     0.836717875    -0.161432847
 C       -6.807569770     2.040405872    -0.173945307
 C       -4.871104458    -0.948863096     0.994864622
 C       -4.342453526    -1.563796152     2.066463189
 C       -3.601932388    -2.820777530     2.025603850
 C       -3.366201879    -3.521761099     0.839978631
 C       -2.652948303    -4.720314971     0.847952867
 C       -2.170867307    -5.254377362     2.047465727
 C       -2.410188794    -4.556102814     3.238901907
 C       -3.114129857    -3.354776958     3.226142074
Si       -1.227952235    -6.836904869     2.066445063
 C       -1.582556334    -7.850332850     0.541285940
 C        0.638892955    -6.478206017     2.157237732
 C       -1.713350391    -7.812095847     3.628382807
 C       -9.827636388     3.922997110     0.794331246
 C       -7.423135105     5.383768525    -0.472145898
 C       -2.552389282    13.696190889     0.322502702
 C       -4.379482884    12.935370606    -2.059316996
 C       -0.625751284    -0.934430881    -1.535378705
 C       -0.652680125    -0.895764360     1.544862801
 H        1.202194475     2.676882299    -0.548356242
 H        0.289701642     4.924918776    -0.543851757
 H       -3.591110703     3.395423915     0.532034794
 H       -2.717797213     1.125648876     0.548448255
 H       -3.349145242     5.711191675     0.257864926
 H       -0.537331803     6.749787138    -0.521099888
 H       -0.290819699     9.057817699    -0.786995242
 H       -1.148937148    11.333671040    -0.795027979
 H       -5.096277597     9.796103981     0.216120145
 H       -4.187396084     7.548310690     0.247808248
 H       -6.088173877    13.353302455     0.487162848
 H       -4.798686549    11.077572821     2.197917936
 H       -5.950125469    10.317617277     4.023527664
 H       -7.863540844    10.334269136     5.537675234
 H       -9.599541918    13.598227353     3.300692466
 H       -7.731225436    13.480725018     1.705812414
 H      -11.170969919    13.390637473     6.580343594
 H      -10.463605538    14.120063180     5.125589677
 H       -9.434012459    13.826920134     6.557609993
 H       -6.786268512    10.025251664     9.281363953
 H       -6.334119040    10.074941159     7.553451186
 H       -6.052730035     8.595294175     8.533099600
 H      -10.373808357     8.051865880     6.917325880
 H      -10.594522306     6.798010857     4.831500377
 H       -6.310286190     6.557346568     4.499084716
 H       -6.068186315     7.938823736     6.494187092
 H       -9.732697405     5.670340718     3.044723478
 H       -6.628385249     5.419183830     2.798463462
 H       -6.696273868     2.717569593     3.175807817
 H       -5.448924529     0.631453243     3.167037606
 H       -5.942318754     0.305794844    -1.096900201
 H       -7.161503089     2.410222150    -1.140323641
 H       -4.773771515    -1.386399522    -0.003347364
 H       -4.445318252    -1.127237897     3.064518032
 H       -3.744131905    -3.139247137    -0.106945511
 H       -2.496752563    -5.219136062    -0.112584317
 H       -2.058398630    -4.924414728     4.206597956
 H       -3.287502022    -2.827268375     4.162314044
 H      -11.224677253    11.006837727     6.716021466
 H       -9.985559215    10.036498662     5.889635987
 H       -8.241799014    11.462582759     7.369970412
 H       -9.644281172    11.917105456     8.323130247
 H       -9.037497091    10.009262181     9.522259782
 H      -10.141582833     9.246577858     8.370149758
 H        2.263451069    -1.030245930     0.029610710
 H        2.260234680     0.533357889     0.883831278
 H        2.276612755     0.489231387    -0.899892646
 H       -1.044957622    -8.814897270     0.570219159
 H       -1.276632388    -7.327082107    -0.381398277
 H       -2.661792723    -8.074389568     0.459061502
 H        1.134508467    -7.488245330     2.248995601
 C        1.184892407    -5.797216950     0.889508235
 C        1.039903826    -5.638622907     3.383371613
 H       -1.397095372    -7.173837467     4.504064710
 C       -3.232258330    -8.039134429     3.733522272
 C       -0.996035703    -9.168108333     3.753174333
 H      -10.369551988     4.909283317     0.879494761
 C      -10.172284644     3.311975051    -0.575541086
 C      -10.355017183     2.985846274     1.896308374
 H       -7.798483296     4.856231306    -1.395401664
 C       -8.026164289     6.799087735    -0.450179302
 C       -5.892779270     5.492149587    -0.574622600
 H       -1.703592679    13.635203951    -0.418211291
 C       -3.047261156    15.153143168     0.358223960
 C       -2.003673765    13.319715291     1.710519812
 H       -4.783589578    13.987061998    -2.005174218
 C       -3.200377199    12.926118397    -3.047640311
 C       -5.493544287    12.021495016    -2.601281567
 H       -0.255431334    -1.994048665    -1.421187662
 C       -2.160797825    -0.972129328    -1.638544090
 C       -0.059243017    -0.369802317    -2.851134837
 H       -1.767615842    -1.012206726     1.391164094
 C       -0.054759985    -2.300423385     1.723292756
 C       -0.441946204    -0.092567018     2.840685250
 H        1.016331728    -6.380190840    -0.024809605
 H        2.273489403    -5.665922879     0.972619235
 H        0.765804432    -4.793281222     0.728494454
 H        0.763987417    -6.101716258     4.339016185
 H        0.612758491    -4.625355722     3.365152531
 H        2.131866471    -5.510388475     3.410113560
 H       -3.814708462    -7.107169109     3.703767754
 H       -3.476382742    -8.523423590     4.689784144
 H       -3.623009846    -8.697252337     2.946037968
 H        0.098154373    -9.082777960     3.763228009
 H       -1.269585878    -9.872611988     2.956553645
 H       -1.273980195    -9.653452524     4.700244172
 H       -9.922354782     3.965891694    -1.420608915
 H      -11.254764234     3.128449966    -0.642258070
 H       -9.688209857     2.340189491    -0.745609766
 H      -10.183081475     3.360779438     2.914540145
 H       -9.919180893     1.977840828     1.841417257
 H      -11.441717612     2.856762541     1.794158155
 H       -9.123284461     6.806008282    -0.462299945
 H       -7.706684499     7.359164447    -1.341053691
 H       -7.702715497     7.391071551     0.419375879
 H       -5.396090257     4.518073901    -0.691941754
 H       -5.448800165     5.997373245     0.295024140
 H       -5.613789511     6.082663836    -1.460365782
 H       -3.385995933    15.522518533    -0.618026085
 H       -2.230681232    15.819560049     0.671515569
 H       -3.863276151    15.309191977     1.077768143
 H       -1.571876783    12.309703532     1.748805733
 H       -2.764022847    13.383875845     2.502266162
 H       -1.198597950    14.009931515     1.998853172
 H       -2.399608569    13.626223410    -2.777669696
 H       -3.545538756    13.226050740    -4.047716206
 H       -2.749588724    11.930252428    -3.166307593
 H       -6.397874440    12.018449259    -1.977239332
 H       -5.169213343    10.977375927    -2.719834680
 H       -5.807840296    12.360452279    -3.598381262
 H       -2.639933835    -1.419122055    -0.757048730
 H       -2.465922124    -1.578830613    -2.502231417
 H       -2.600901516     0.024239826    -1.789724060
 H        1.037078446    -0.381222769    -2.894521638
 H       -0.389413593     0.659492350    -3.050695373
 H       -0.406321995    -0.974081105    -3.700969458
 H       -0.244269850    -2.961865650     0.866520470
 H       -0.525343113    -2.796149737     2.587931073
 H        1.024120170    -2.292112480     1.918361175
 H       -0.904355140     0.904388571     2.810380595
 H        0.616810061     0.040120574     3.097026715
 H       -0.903421919    -0.620517765     3.687236946

