187   

Si        0.000000000     0.000000000     0.000000000
 C        1.866180105     0.000000000     0.000000000
 C       -0.660810571     1.717675034     0.000000000
 C        0.072480111     2.743620478     0.606158665
 C       -0.412764784     4.049992276     0.615472731
 C       -1.630273452     4.366250573     0.005930639
 C       -2.367804727     3.336553701    -0.592000020
 C       -1.898120878     2.025305222    -0.579543769
 C       -2.165788927     5.724144560    -0.001702872
 C       -1.551407976     6.776625482     0.564920199
 C       -2.060049537     8.142691324     0.573979332
 C       -1.300393663     9.135303003     1.208603794
 C       -1.740874295    10.454989592     1.245659525
 C       -2.940320550    10.819731005     0.621135698
 C       -3.688631135     9.835222622    -0.032451635
 C       -3.247713533     8.511894926    -0.061866900
Si       -3.524229069    12.563291716     0.668945760
 C       -4.597850744    12.955491283    -0.755401692
 C       -4.483145563    12.369927822    -1.954448597
 C       -5.337059895    12.675993188    -3.101914974
 C       -5.110817138    11.988603589    -4.304799077
 C       -5.887990792    12.237873391    -5.421940491
 C       -6.942510326    13.172094006    -5.355472983
 C       -7.169419090    13.864312019    -4.157468223
 C       -6.358396137    13.625684145    -3.052166678
 N       -7.702506403    13.383935998    -6.532660890
 C       -8.291555542    12.150849337    -7.102460193
 C       -8.634669280    14.522868696    -6.514450752
 C       -8.825754053    11.131981233    -6.079914069
 C       -9.967113669    11.712745060    -5.227439729
 N      -10.604054441    10.725143913    -4.349386740
 C       -9.981190257    10.343684725    -3.153455029
 C       -9.007294397    11.154178229    -2.533115554
 C       -8.403813369    10.755707978    -1.348748637
 C       -8.759670915     9.555506312    -0.718839616
 C       -9.742669513     8.765484280    -1.324088865
 C      -10.353840398     9.145396234    -2.509384791
 C      -11.356215295     9.694693570    -5.082483787
 C       -8.106964609     9.156642858     0.532416248
 C       -8.408950208     8.021192074     1.175200747
Si       -7.737493614     7.326494609     2.725601382
 C       -7.286441842     5.580866270     2.348674554
 C       -6.647580202     5.307563549     1.131841843
 C       -6.285617118     4.003939189     0.799171291
 C       -6.544597993     2.946778744     1.676466470
 C       -7.175717511     3.224336196     2.895844986
 C       -7.539830269     4.526886348     3.231639179
 C       -6.184109408     1.566467849     1.371493473
 C       -5.577121618     1.161485127     0.242974503
 C       -5.221475672    -0.222759368    -0.050699071
 C       -5.487593892    -1.270119402     0.836600438
 C       -5.132852232    -2.580528072     0.521140443
 C       -4.508141199    -2.876869367    -0.696425957
 C       -4.244090737    -1.830088760    -1.587147155
 C       -4.595968686    -0.520419383    -1.268021901
Si       -4.052741490    -4.619407647    -1.081549736
 C       -5.318875593    -5.792700157    -0.371784976
 C       -3.948794823    -4.951053205    -2.954012172
 C       -2.335738596    -4.931415672    -0.322920867
 C       -6.250063974     8.267404190     3.428279614
 C       -9.125290991     7.389599286     4.029396631
 C       -4.554682002    12.796130025     2.253438484
 C       -2.049084176    13.759222434     0.703970411
 C       -0.634832075    -0.955083108    -1.519922820
 C       -0.656115295    -0.897271193     1.545568624
 H        1.037162176     2.562710777     1.087976324
 H        0.173706610     4.827198831     1.102064913
 H       -3.324439984     3.558840384    -1.060084029
 H       -2.530419140     1.254559790    -1.031205253
 H       -3.128524946     5.839951498    -0.506363996
 H       -0.590405191     6.648369590     1.072842512
 H       -0.360925267     8.871552031     1.690334917
 H       -1.113394608    11.181549982     1.768731593
 H       -4.635711028    10.062023433    -0.536208133
 H       -3.844277482     7.763893566    -0.582719086
 H       -5.352769485    13.733303249    -0.566047873
 H       -3.728131744    11.600384069    -2.172230503
 H       -4.309616245    11.250629935    -4.363201175
 H       -5.685816402    11.720240102    -6.356359666
 H       -7.971864850    14.590690853    -4.076538628
 H       -6.542443886    14.182460884    -2.132454922
 H       -8.996957864    14.701739304    -7.542072138
 H       -8.089969158    15.434468887    -6.208371963
 H       -9.505919443    14.393072895    -5.854724048
 H      -11.732407484    10.096677429    -6.037237874
 H      -12.241547001     9.401411091    -4.487715420
 H      -10.757606141     8.793815422    -5.297968675
 H       -8.696928686    12.090537502    -2.991413374
 H       -7.633997683    11.392227113    -0.907349974
 H      -10.046283932     7.824482691    -0.860374956
 H      -11.115819748     8.500382051    -2.932916255
 H       -7.348946443     9.864552007     0.886212544
 H       -9.187659872     7.347655443     0.767430693
 H       -6.417553020     6.096956224     0.407473901
 H       -5.792254369     3.814813433    -0.152100550
 H       -7.382961901     2.416022782     3.593941188
 H       -8.023814203     4.684565074     4.198657205
 H       -6.447298132     0.844748368     2.150629580
 H       -5.307745534     1.880905850    -0.535257342
 H       -5.976887280    -1.068723816     1.787717296
 H       -5.367470013    -3.355057588     1.256897638
 H       -3.761789732    -2.001714171    -2.554305009
 H       -4.388646415     0.276346058    -1.980171258
 H       -9.094039299    12.427618947    -7.819406868
 H       -7.489019682    11.668948804    -7.711912311
 H       -9.168165532    10.226807288    -6.614441590
 H       -8.009372163    10.784795951    -5.413207957
 H       -9.591165770    12.559461436    -4.606665946
 H      -10.758801161    12.143602152    -5.883369606
 H        2.265390133    -1.029519949    -0.003399707
 H        2.278206828     0.513222357     0.885907558
 H        2.258423498     0.513061635    -0.896596348
 H       -5.086552465    -6.839592394    -0.635267912
 H       -6.331015350    -5.568308924    -0.753523604
 H       -5.355659168    -5.730547834     0.730114283
 H       -3.890246736    -6.075742004    -3.046264251
 C       -5.207113520    -4.483428229    -3.707902326
 C       -2.704997232    -4.367179947    -3.647984363
 H       -1.638565411    -4.228130980    -0.867987950
 C       -2.263953478    -4.592453001     1.176031704
 C       -1.826678784    -6.367645090    -0.536247545
 H       -6.572803572     9.347741196     3.497729275
 C       -5.834682831     7.805095528     4.836559536
 C       -5.027552744     8.186377553     2.504640381
 H       -8.712876984     6.878886347     4.946750188
 C       -9.514064180     8.827365475     4.418772177
 C      -10.392736240     6.633829863     3.591856024
 H       -4.806654115    13.893903509     2.304429810
 C       -5.872523736    12.001870756     2.213946528
 C       -3.784819236    12.420447215     3.531361611
 H       -1.485941723    13.535958764     1.655887813
 C       -1.091531210    13.538986828    -0.480852974
 C       -2.468771442    15.239633131     0.738049227
 H       -1.735903406    -1.131931480    -1.334755446
 C       -0.493248044    -0.174143289    -2.838795119
 C        0.045801685    -2.325789578    -1.689242412
 H       -0.409661061    -1.988578509     1.401576933
 C        0.015780334    -0.422621563     2.846799493
 C       -2.179714696    -0.765054585     1.703870191
 H       -6.134245872    -4.932931608    -3.327643112
 H       -5.141451238    -4.769432499    -4.767331918
 H       -5.340401676    -3.392828362    -3.689859726
 H       -1.762301008    -4.749964972    -3.235174005
 H       -2.663309221    -3.270293024    -3.617035945
 H       -2.706285863    -4.642863561    -4.712721841
 H       -2.547313618    -3.552194554     1.398123950
 H       -1.233003766    -4.710760530     1.539635171
 H       -2.887133472    -5.248473386     1.796612787
 H       -1.780048979    -6.662822159    -1.592317248
 H       -2.429419227    -7.118010468    -0.007695391
 H       -0.803471976    -6.465346727    -0.144935714
 H       -6.625852593     7.922541073     5.587023599
 H       -4.983043845     8.404878089     5.189870857
 H       -5.500185328     6.758257740     4.861437584
 H       -5.241212470     8.508835013     1.475660718
 H       -4.591235417     7.177995952     2.452203925
 H       -4.223550679     8.843277231     2.869093644
 H       -8.680859543     9.403734489     4.841210998
 H      -10.297658489     8.810171943     5.189279205
 H       -9.924693503     9.402198151     3.576238817
 H      -10.205509601     5.588534189     3.310691110
 H      -10.905776975     7.116767352     2.748487395
 H      -11.118025537     6.605048051     4.417188245
 H       -6.515356989    12.264748619     1.362769107
 H       -6.462873921    12.203395291     3.118907083
 H       -5.709226542    10.912943886     2.189435706
 H       -2.868248539    13.005391461     3.677987025
 H       -3.510913087    11.355787550     3.568315912
 H       -4.410744563    12.605972127     4.416233254
 H       -0.699554122    12.513958651    -0.540819224
 H       -0.216627516    14.197775589    -0.387273559
 H       -1.551396776    13.773649760    -1.451707090
 H       -3.101452863    15.495177404     1.597391917
 H       -2.996499714    15.554644724    -0.173129475
 H       -1.578063274    15.880411444     0.812993853
 H       -0.993370481     0.803869237    -2.824465526
 H       -0.945522285    -0.741901709    -3.663843492
 H        0.553200542     0.001010986    -3.121248611
 H       -0.015412514    -2.959162015    -0.793857128
 H        1.105761035    -2.243582549    -1.963848755
 H       -0.439175950    -2.886441276    -2.501861387
 H        1.102869101    -0.568822631     2.854208371
 H       -0.377725728    -0.992223191     3.701020471
 H       -0.183100938     0.635639106     3.067995496
 H       -2.747132486    -1.146516507     0.841687244
 H       -2.506224940     0.271876668     1.873134998
 H       -2.523259282    -1.339293711     2.575292998

