187   

Si        0.000000000     0.000000000     0.000000000
 C        1.865596054     0.000000000     0.000000000
 C       -0.680651815     1.710376878     0.000000000
 C        0.155976459     2.824149815    -0.121607514
 C       -0.375151834     4.113921044    -0.119910684
 C       -1.752554227     4.318713154    -0.006880496
 C       -2.590104656     3.201755011     0.113936863
 C       -2.062198621     1.913860861     0.121358377
 C       -2.351911617     5.648837564    -0.000629836
 C       -1.661986244     6.797572619    -0.100534600
 C       -2.259421097     8.128793205    -0.094489515
 C       -3.636982715     8.335071733     0.018503135
 C       -4.166364632     9.625415414     0.020027871
 C       -3.322350095    10.736653522    -0.052852708
 C       -1.939278993    10.533532468    -0.154415000
 C       -1.415945939     9.244612099    -0.182146252
Si       -3.967741061    12.459277056    -0.054318192
 C       -2.864823891    13.494652045     0.969916755
 C       -2.337803111    14.666673689     0.592287126
 C       -1.455614260    15.480349574     1.430088295
 C       -0.967935160    16.691787538     0.918181444
 C       -0.130028475    17.499266469     1.669574278
 C        0.282945960    17.091573457     2.954448245
 C       -0.208158352    15.882270224     3.471204514
 C       -1.085818923    15.105634547     2.723660562
 N        1.139532145    17.949254385     3.686039874
 C        2.361947696    18.394229448     2.987991155
 C        1.389094232    17.572834761     5.087904856
 C        3.419956716    17.296484248     2.767262216
 C        3.283629398    16.621396259     1.387997272
 N        3.757554050    15.221402806     1.316300217
 C        2.798918152    14.311642347     1.886281896
 C        1.904074754    13.723357269     0.980524113
 C        0.944640666    12.833028386     1.439734224
 C        0.841883261    12.529378228     2.805303049
 C        1.745492975    13.114470885     3.696758381
 C        2.732501903    13.984168406     3.243826876
 C        5.123994366    15.037427371     1.837364684
 C       -0.188690638    11.581874784     3.242687129
 C       -0.368698281    11.226250606     4.520652414
Si       -1.622086798    10.057692498     5.154983912
 C       -0.835411513     8.808024642     6.249442123
 C        0.541964876     8.574087328     6.183330861
 C        1.138522798     7.625977123     7.013747785
 C        0.371671189     6.882904143     7.915328581
 C       -1.009368947     7.113964509     7.973525581
 C       -1.607682152     8.064360655     7.150502905
 C        0.952764701     5.880952418     8.802926469
 C        2.257814550     5.563435140     8.847908737
 C        2.839226980     4.561635359     9.735286214
 C        2.074854783     3.822459758    10.641608075
 C        2.672295924     2.874039103    11.471793447
 C        4.049414464     2.640153924    11.408723107
 C        4.818378284     3.379527779    10.499621568
 C        4.219954453     4.328575861     9.675804430
Si        4.853717938     1.392289627    12.497051431
 C        3.595416600     0.299308685    13.334947676
 C        6.030112018     0.343157004    11.429745815
 C        5.877389427     2.280366531    13.833863813
 C       -2.916802273    11.068782053     6.111414624
 C       -2.460268358     9.127846868     3.723043032
 C       -4.038167387    13.079470089    -1.849719068
 C       -5.719610841    12.512834541     0.683054937
 C       -0.593458701    -0.937063487    -1.547177204
 C       -0.663753568    -0.887958489     1.546933086
 H        1.240986428     2.726383135    -0.216696420
 H        0.298680272     4.964311258    -0.208804333
 H       -3.665687811     3.339517506     0.206180522
 H       -2.763536313     1.081237685     0.226736862
 H       -3.441639438     5.659236004     0.093873252
 H       -0.571935097     6.785417454    -0.196128223
 H       -4.312160913     7.485303600     0.095054773
 H       -5.252542088     9.723780834     0.091578333
 H       -1.234982721    11.370173737    -0.220152304
 H       -0.339591397     9.103534119    -0.266504008
 H       -2.660570836    13.071592517     1.968512523
 H       -2.527312612    15.114718980    -0.391995863
 H       -1.257064514    17.010634230    -0.083151541
 H        0.204541477    18.453272995     1.270649318
 H        0.098451254    15.528743307     4.451131689
 H       -1.458976537    14.171378295     3.151414835
 H        1.957876037    18.377763267     5.583584268
 H        1.942869726    16.628534657     5.211862294
 H        0.421442254    17.488493823     5.615580713
 H        5.810907814    15.670089452     1.249968459
 H        5.423120101    13.986087409     1.679037294
 H        5.254265376    15.276811889     2.902419158
 H        1.973690788    13.975678400    -0.077069178
 H        0.253445483    12.379286966     0.728815341
 H        1.692412397    12.883913361     4.760913052
 H        3.441090284    14.409624281     3.947840721
 H       -0.792832725    11.180914950     2.416856486
 H        0.258057493    11.655328174     5.321754733
 H        1.190604987     9.119406672     5.490137165
 H        2.213088908     7.465606239     6.949155360
 H       -1.623896410     6.544646621     8.667995609
 H       -2.688640661     8.202552456     7.239296473
 H        0.234913085     5.379539642     9.458652060
 H        2.975105039     6.063785759     8.190713319
 H        1.000221791     3.982385363    10.707578160
 H        2.022297350     2.327478055    12.160542400
 H        5.898794425     3.238560392    10.405338548
 H        4.833653110     4.893318060     8.976517174
 H        2.070455499    18.855285279     2.018264011
 H        2.799665083    19.222793572     3.592211669
 H        4.431920648    17.726425538     2.872723270
 H        3.336546034    16.536124635     3.566933443
 H        2.217627467    16.631294591     1.057493072
 H        3.854220359    17.194392759     0.623833592
 H        2.263011092    -1.030383285     0.026022657
 H        2.263723372     0.530370324     0.884192453
 H        2.273283081     0.491316461    -0.900856346
 H        4.087395268    -0.473330234    13.952375760
 H        2.966196953    -0.222047114    12.590881846
 H        2.926694476     0.877487322    13.996367684
 H        6.785334558     1.064962663    11.001844685
 C        6.798592623    -0.723767072    12.229598420
 C        5.308732712    -0.335968744    10.251573264
 H        6.286542515     1.463705705    14.496346723
 C        7.067466131     3.079102551    13.272877455
 C        5.021295919     3.217857333    14.705192294
 H       -3.722992171    10.338961739     6.411070383
 C       -2.347391480    11.699543801     7.394812722
 C       -3.561850720    12.172071140     5.253891125
 H       -2.617735778     9.879669446     2.894120273
 C       -1.553090349     8.005919153     3.187381434
 C       -3.832521243     8.528873869     4.076253666
 H       -4.347574271    14.163256435    -1.793154791
 C       -2.671925608    13.007689131    -2.556520303
 C       -5.076639708    12.332443558    -2.705166211
 H       -6.345928397    11.826073094     0.043471135
 C       -5.773059150    11.998426006     2.132824845
 C       -6.351253583    13.915330814     0.630546380
 H       -0.058758562    -1.930712216    -1.519921649
 C       -2.106941840    -1.215022077    -1.572052229
 C       -0.203460028    -0.221003923    -2.853496144
 H       -1.788528473    -0.873101030     1.450931672
 C       -0.217672321    -2.357167360     1.651044525
 C       -0.293429197    -0.157031373     2.850094170
 H        7.397959335    -0.305407915    13.048529071
 H        7.504128869    -1.250540983    11.570645619
 H        6.142819331    -1.494926846    12.654978387
 H        4.779324063     0.373843255     9.599739137
 H        4.582718780    -1.094689726    10.572293722
 H        6.036755487    -0.855141295     9.612133026
 H        7.776572689     2.463708092    12.704985781
 H        7.641812705     3.525687376    14.097722629
 H        6.755393985     3.914967150    12.630976141
 H        4.194252697     2.706495443    15.214252923
 H        4.594145562     4.056872708    14.137112012
 H        5.639262646     3.665507938    15.496761074
 H       -1.905142054    10.965065486     8.082119242
 H       -3.149263808    12.198758952     7.956873277
 H       -1.587162197    12.467004562     7.194854819
 H       -4.023633368    11.790777282     4.332461622
 H       -2.850924133    12.960877193     4.968278740
 H       -4.362641626    12.669183175     5.818716534
 H       -0.599543949     8.372670068     2.784098724
 H       -2.052983285     7.480892179     2.358598978
 H       -1.324958281     7.233640077     3.935180306
 H       -4.567371560     9.279201860     4.392438266
 H       -3.776325832     7.757702483     4.855888334
 H       -4.259026999     8.035764844     3.189430518
 H       -1.875465679    13.552809238    -2.031278100
 H       -2.742594115    13.454116125    -3.558348440
 H       -2.324690483    11.975076556    -2.705694189
 H       -6.101918693    12.421958078    -2.323851726
 H       -4.852507663    11.261829102    -2.814137306
 H       -5.092341149    12.745668475    -3.724276864
 H       -5.329828712    11.001105339     2.264044326
 H       -6.817539830    11.916269374     2.464867210
 H       -5.278324390    12.681494067     2.838875379
 H       -6.439233896    14.315963005    -0.387428816
 H       -5.803788933    14.654809794     1.232865656
 H       -7.372531354    13.884342948     1.036222677
 H       -2.463000045    -1.774798861    -0.698040715
 H       -2.360898566    -1.825821897    -2.450776377
 H       -2.707156526    -0.298388969    -1.654757568
 H        0.877248408    -0.059178590    -2.957133522
 H       -0.697645038     0.754300603    -2.969704310
 H       -0.507873637    -0.825296057    -3.719967909
 H       -0.508851303    -2.963030074     0.783433217
 H       -0.685747951    -2.829934776     2.526812137
 H        0.866483169    -2.466690760     1.786863376
 H       -0.632007534     0.888986973     2.872683477
 H        0.785741781    -0.159499923     3.053086885
 H       -0.770514602    -0.651483098     3.708350159

