187   

Si        0.000000000     0.000000000     0.000000000
 C        1.864015048     0.000000000     0.000000000
 C       -0.659817398     1.715941622     0.000000000
 C        0.140400528     2.787733596     0.410296604
 C       -0.362987689     4.087950611     0.409137102
 C       -1.680907603     4.340739550     0.019435925
 C       -2.483809677     3.264892021    -0.381700736
 C       -1.980589957     1.967110668    -0.392818545
 C       -2.252443774     5.682158117     0.001577045
 C       -1.593183721     6.800092123     0.349202573
 C       -2.172727084     8.138423587     0.328408777
 C       -3.492441796     8.380606483    -0.063166714
 C       -4.007320963     9.676090607    -0.068575187
 C       -3.208292103    10.759196194     0.312723752
 C       -1.883613020    10.519809439     0.699977099
 C       -1.373187489     9.224929826     0.704472491
Si       -3.880579030    12.471475942     0.308162242
 C       -3.001464395    13.532062255     1.510040887
 C       -2.452573267    13.070596109     2.642261421
 C       -1.745806095    13.901498339     3.615909469
 C       -1.215933406    13.295356449     4.763491757
 C       -0.537842010    14.038187031     5.716106420
 C       -0.437226671    15.438966524     5.592143859
 C       -0.982944195    16.050578175     4.444793630
 C       -1.601654437    15.283749584     3.467667237
 N        0.243673580    16.214783793     6.542555733
 C        0.612217612    15.603518909     7.825883320
 C       -0.155062883    17.627438378     6.657424101
 C       -0.542113496    15.443902277     8.834851703
 C       -0.865175298    13.985894914     9.218138182
 N        0.234941215    13.161882796     9.760088207
 C        0.848175537    12.306043361     8.793053837
 C        0.129141798    11.150244813     8.440937186
 C        0.650130292    10.263907585     7.509784384
 C        1.867420488    10.529851225     6.865379207
 C        2.581643795    11.674170132     7.233163737
 C        2.102798719    12.535000021     8.215295265
 C        1.170357447    13.887299435    10.631605551
 C        2.381619780     9.564762032     5.887190148
 C        3.532593940     9.735002709     5.224675184
Si        4.295521193     8.627582154     3.985946428
 C        3.944363042     6.832560330     4.178253182
 C        3.326977057     6.321196379     5.325133266
 C        3.073269294     4.956282744     5.443266895
 C        3.442799802     4.066272384     4.427110626
 C        4.066930120     4.577789479     3.285297599
 C        4.315694220     5.943442717     3.161451901
 C        3.155932990     2.645432134     4.596601426
 C        3.451249989     1.691011236     3.697805813
 C        3.163312189     0.270840106     3.869719463
 C        2.539537160    -0.241089494     5.010671639
 C        2.283714074    -1.606936360     5.132224837
 C        2.662483960    -2.495219927     4.120622598
 C        3.301710239    -1.986446340     2.982024775
 C        3.553514500    -0.622558897     2.862997174
Si        2.331607001    -4.300883356     4.266664748
 C        1.933864733    -4.783218550     6.023405426
 C        0.863870328    -4.769570678     3.149051820
 C        3.868603269    -5.241276837     3.652723369
 C        3.679913282     9.164646199     2.265107284
 C        6.174672941     8.916422747     4.090246249
 C       -3.659336406    13.216261767    -1.427809980
 C       -5.733876669    12.445265192     0.735390772
 C       -0.653366471    -0.943533091    -1.516738086
 C       -0.625003526    -0.873706249     1.570557301
 H        1.174608362     2.648922927     0.739114223
 H        0.281120836     4.906618689     0.726202399
 H       -3.512448811     3.442424068    -0.688726617
 H       -2.651297561     1.167404271    -0.717894445
 H       -3.295049953     5.730150250    -0.325849892
 H       -0.551012522     6.754354509     0.678799084
 H       -4.133268340     7.554715274    -0.365331840
 H       -5.047249055     9.802528047    -0.381279433
 H       -1.209882159    11.330824112     0.998582742
 H       -0.341329925     9.057263503     1.009886304
 H       -2.959548308    14.598218084     1.245064511
 H       -2.494489416    12.010355980     2.934219424
 H       -1.314021763    12.216982035     4.902079839
 H       -0.093774096    13.521705742     6.564199194
 H       -0.905951043    17.123114020     4.302838653
 H       -1.993056769    15.777991583     2.577723528
 H        0.318098392    18.094499408     7.535995869
 H       -1.245880766    17.764030088     6.739704327
 H        0.204821943    18.175738165     5.767028147
 H        0.598133610    14.342103322    11.459021856
 H        1.752049289    14.677752973    10.134550165
 H        1.875661800    13.164436912    11.079479739
 H       -0.829799319    10.953697498     8.917873677
 H        0.094340000     9.359062212     7.263686677
 H        3.537794802    11.898056892     6.758370356
 H        2.700683928    13.392313892     8.512656757
 H        1.731376169     8.693044509     5.745273591
 H        4.135604388    10.647337547     5.388927959
 H        3.031880581     6.964019048     6.160439503
 H        2.584590204     4.580461717     6.340451809
 H        4.363722767     3.909187087     2.479291890
 H        4.800971647     6.283164411     2.241669664
 H        2.662940471     2.388683974     5.539007858
 H        3.941968817     1.947616343     2.754510064
 H        2.239644733     0.427469593     5.815755023
 H        1.786362894    -1.946527909     6.044916319
 H        3.623426726    -2.632582806     2.160443770
 H        4.065927962    -0.250041134     1.977255428
 H        1.096769582    14.623580380     7.611289598
 H        1.418401991    16.233865016     8.269382075
 H       -0.317855055    16.024599080     9.748234783
 H       -1.464867301    15.898698167     8.421273102
 H       -1.652361154    13.996482398    10.011946567
 H       -1.317166643    13.462525034     8.344086476
 H        2.263146005    -1.029101997     0.033823677
 H        2.260118866     0.542058864     0.878671964
 H        2.261114448     0.486316594    -0.908375589
 H        1.786821302    -5.874344570     6.113153593
 H        1.013072820    -4.293376082     6.385653359
 H        2.756080139    -4.502758541     6.706660175
 H        0.717206453    -5.879744438     3.289907331
 C       -0.440649042    -4.063599919     3.558899410
 C        1.125815176    -4.511376417     1.654512041
 H        4.005386128    -4.941996277     2.572835732
 C        5.145280955    -4.845774947     4.416531806
 C        3.711165575    -6.771501052     3.699197723
 H        4.325179271     8.615405815     1.520828565
 C        2.215263161     8.760773775     2.018317730
 C        3.831245460    10.673863028     2.009907394
 H        6.324435487    10.024344309     3.935799761
 C        6.736233652     8.545096062     5.474670327
 C        6.981974539     8.175481829     3.011133260
 H       -4.086885784    14.258865397    -1.377789547
 C       -2.176616665    13.325822333    -1.827315881
 C       -4.415508151    12.440941845    -2.520672893
 H       -6.235227382    11.846317830    -0.078555706
 C       -6.012546352    11.750898086     2.080599787
 C       -6.370646188    13.846400001     0.754407426
 H       -1.777846332    -0.951505793    -1.419188439
 C       -0.302572313    -0.249119292    -2.845083069
 C       -0.175309090    -2.406328062    -1.573271496
 H       -0.062841728    -1.852283891     1.620161517
 C       -0.309461515    -0.075632451     2.846827593
 C       -2.131401943    -1.188091478     1.544187666
 H       -0.756710392    -4.295076375     4.583894650
 H       -1.264589089    -4.382303134     2.904481814
 H       -0.382721294    -2.967874747     3.468225205
 H        1.961006231    -5.099929596     1.253921414
 H        1.322756797    -3.453316045     1.428472034
 H        0.241691717    -4.792124761     1.063708353
 H        5.356577034    -3.767477154     4.380109129
 H        6.019410320    -5.344940754     3.974652128
 H        5.122392200    -5.142328624     5.473617716
 H        2.859208852    -7.139210529     3.112987961
 H        3.607469420    -7.160974852     4.720649573
 H        4.604831305    -7.253644259     3.276703643
 H        2.036314130     7.682147715     2.131864887
 H        1.928498419     9.016016719     0.987406651
 H        1.511815634     9.286507224     2.681076789
 H        4.863051684    11.033489335     2.105835090
 H        3.200372307    11.284527315     2.673053827
 H        3.517468815    10.914419622     0.983420254
 H        6.249064143     9.077900381     6.302832713
 H        7.804067511     8.800326420     5.529779220
 H        6.666969486     7.468802113     5.689053850
 H        6.683460243     8.432860964     1.987140492
 H        6.929879089     7.082308211     3.113968265
 H        8.047053291     8.437851525     3.093896922
 H       -1.577032164    13.916668216    -1.121181217
 H       -2.084116287    13.823300630    -2.802905544
 H       -1.690188196    12.345513522    -1.934837435
 H       -5.500169476    12.405379900    -2.358033190
 H       -4.059545695    11.407068768    -2.636264327
 H       -4.267501475    12.925503625    -3.496621189
 H       -5.643151777    10.716588007     2.121707579
 H       -7.095040063    11.698823613     2.262228614
 H       -5.581022342    12.289553357     2.936766910
 H       -6.280734860    14.379020211    -0.200781603
 H       -5.954930570    14.493111013     1.539979207
 H       -7.447621479    13.766701255     0.960844273
 H       -0.662169687     0.788342453    -2.899697361
 H       -0.771034505    -0.781085062    -3.684964791
 H        0.775780090    -0.235661651    -3.050796630
 H       -0.442631040    -2.985658698    -0.679454384
 H        0.909467661    -2.495471962    -1.718121691
 H       -0.642317996    -2.921058401    -2.424944143
 H        0.766639412     0.104417710     2.990447215
 H       -0.640916708    -0.631519910     3.735121615
 H       -0.816279446     0.898649911     2.884080483
 H       -2.426478138    -1.838006652     0.711269792
 H       -2.754564867    -0.283669193     1.505355606
 H       -2.418992433    -1.718253315     2.463881529

