187   

Si        0.000000000     0.000000000     0.000000000
 C        1.865282828     0.000000000     0.000000000
 C       -0.681874457     1.709509602     0.000000000
 C        0.115145298     2.805514758    -0.345047153
 C       -0.413440822     4.096331365    -0.341212415
 C       -1.749588867     4.320210558     0.000725248
 C       -2.548232975     3.220217948     0.341543368
 C       -2.023370611     1.931000269     0.340061142
 C       -2.346493482     5.651416123     0.018879479
 C       -1.695729077     6.787512641    -0.283785570
 C       -2.295299729     8.117652915    -0.264783764
 C       -3.632186662     8.335761963     0.077987353
 C       -4.166271706     9.624477562     0.083559763
 C       -3.375275944    10.722255057    -0.264923644
 C       -2.033474609    10.505985165    -0.611172834
 C       -1.501118400     9.220341241    -0.607174088
Si       -4.031361277    12.443941169    -0.273762491
 C       -3.328729590    13.366344897    -1.690801172
 C       -2.980733791    12.766098221    -2.836883860
 C       -2.416013560    13.447700732    -4.000900653
 C       -2.100261659    12.683176410    -5.133205936
 C       -1.562951580    13.270317266    -6.266519399
 C       -1.208707566    14.635947333    -6.261790096
 C       -1.500936289    15.398544449    -5.115081061
 C       -2.123129275    14.813335956    -4.018928968
 N       -0.663091381    15.216562517    -7.424611879
 C        0.254326510    14.388748956    -8.232810182
 C       -0.200036914    16.610608657    -7.305819263
 C        1.605560268    14.078830846    -7.559776376
 C        1.681943976    12.626748505    -7.044322872
 N        2.649113251    12.424130673    -5.943014459
 C        2.295848132    13.163951214    -4.773214630
 C        1.136244838    12.757702957    -4.087849552
 C        0.734413502    13.429942843    -2.945616445
 C        1.498380796    14.487428418    -2.428335979
 C        2.659475398    14.870549752    -3.101219415
 C        3.059962113    14.221042647    -4.265022416
 C        4.046987535    12.570213935    -6.385331038
 C        1.028920900    15.164819073    -1.218189590
 C        1.672912359    16.184520760    -0.634448627
Si        1.089145594    17.031703827     0.875943565
 C       -0.747257722    16.982214696     0.967927666
 C       -1.484540561    17.032695982    -0.221988711
 C       -2.876425351    16.997590525    -0.194200280
 C       -3.562909783    16.941591422     1.022494330
 C       -2.824396260    16.904014612     2.211933536
 C       -1.431331324    16.921968555     2.186706917
 C       -5.019292090    16.903499098     1.093866930
 C       -5.829355437    16.933903213     0.022138320
 C       -7.286487679    16.896490165     0.078491605
 C       -7.992974026    16.823786329     1.281278437
 C       -9.387359984    16.790221792     1.287004237
 C      -10.103471816    16.811786046     0.086464609
 C       -9.396352432    16.879710594    -1.121947072
 C       -8.005557581    16.924809964    -1.124156836
Si      -11.943492925    16.768206005     0.071953491
 C      -12.634129700    16.353751684     1.754307978
 C      -12.623977210    18.461194303    -0.467498511
 C      -12.480706694    15.459876633    -1.202583035
 C        1.859083249    16.194717586     2.398973330
 C        1.651353072    18.846211418     0.810444693
 C       -5.927350419    12.386098340    -0.414725435
 C       -3.545712455    13.344493227     1.322996275
 C       -0.616419826    -0.919780801    -1.548372466
 C       -0.652717395    -0.909830179     1.539925797
 H        1.167176068     2.693130105    -0.621174102
 H        0.229020739     4.933118088    -0.609483410
 H       -3.591644055     3.372603902     0.610873455
 H       -2.694610180     1.112680098     0.615181326
 H       -3.401846004     5.675011451     0.305891375
 H       -0.640236819     6.765220558    -0.570666791
 H       -4.270650469     7.496897514     0.347782297
 H       -5.216647724     9.731470677     0.367149419
 H       -1.366245871    11.329629022    -0.890475185
 H       -0.456538607     9.072377846    -0.876191998
 H       -3.225459054    14.451522318    -1.546941709
 H       -3.090050115    11.681845321    -2.991788424
 H       -2.313491181    11.612976056    -5.138982737
 H       -1.411182190    12.668605496    -7.158085430
 H       -1.243686492    16.451536625    -5.066725901
 H       -2.358758253    15.431798857    -3.151232417
 H        0.202109766    16.956597990    -8.272375726
 H        0.575829525    16.755297003    -6.535972115
 H       -1.064388079    17.257579688    -7.068700246
 H        4.249213640    11.809840586    -7.159686863
 H        4.720979463    12.356549452    -5.537113907
 H        4.297300601    13.559610373    -6.795886018
 H        0.551159652    11.920460159    -4.466866778
 H       -0.186749996    13.125068979    -2.440997981
 H        3.266762186    15.691662021    -2.720239449
 H        3.960632631    14.549326232    -4.773753600
 H        0.082392529    14.755909969    -0.833637316
 H        2.624320545    16.565246646    -1.034571394
 H       -1.000012737    17.090513764    -1.203546619
 H       -3.427760586    17.022605643    -1.132826645
 H       -3.340961088    16.858047520     3.168364224
 H       -0.906916049    16.885120651     3.144868528
 H       -5.430417368    16.847622377     2.105103192
 H       -5.413478215    16.990788715    -0.989207655
 H       -7.458310016    16.797485098     2.228984337
 H       -9.886280040    16.739954980     2.258627171
 H       -9.904062166    16.897187381    -2.090724840
 H       -7.473266008    16.979833823    -2.072431188
 H       -0.272605300    13.451308449    -8.518913382
 H        0.424867216    14.927230255    -9.193970275
 H        2.432724056    14.270318598    -8.264844677
 H        1.772469026    14.779307402    -6.716363148
 H        0.684837137    12.296227962    -6.670012265
 H        1.950307008    11.934632932    -7.870931427
 H        2.262984312    -1.029420582     0.047447561
 H        2.260632336     0.549454438     0.873792226
 H        2.275479843     0.473399372    -0.909129830
 H      -13.736852233    16.292593128     1.727757971
 H      -12.361811434    17.114114328     2.507140714
 H      -12.256799888    15.377199386     2.108359158
 H      -13.746651461    18.375067205    -0.390999385
 C      -12.168435912    19.601961629     0.461095032
 C      -12.274237443    18.837937129    -1.918206336
 H      -12.089335665    15.820093213    -2.198484149
 C      -11.859938004    14.078244805    -0.926121356
 C      -14.007406530    15.310295799    -1.322465312
 H        1.465835765    16.754569710     3.296115092
 C        1.439951529    14.719917287     2.531174908
 C        3.395765373    16.279746489     2.423556125
 H        2.777746704    18.822933238     0.750691721
 C        1.122491050    19.575375141    -0.438108130
 C        1.255352474    19.646874161     2.063069383
 H       -6.278292214    11.755156215     0.452912554
 C       -6.600576050    13.760820950    -0.297761583
 C       -6.397461127    11.715449083    -1.718765361
 H       -3.933289636    14.401326593     1.205641455
 C       -4.183468589    12.743476823     2.586500484
 C       -2.020969796    13.418743265     1.514747957
 H       -0.128230024    -1.936368043    -1.514884317
 C       -2.141825209    -1.124108821    -1.574410560
 C       -0.189109052    -0.227683192    -2.855711579
 H       -1.777258847    -0.917606616     1.441666206
 C       -0.179351994    -2.371162805     1.636397764
 C       -0.299673801    -0.180648855     2.848955938
 H      -12.452397246    19.450891847     1.510507526
 H      -12.633508218    20.548700557     0.150710701
 H      -11.082088938    19.768925593     0.431243644
 H      -12.632765376    18.109996163    -2.656883341
 H      -11.195193922    18.975717395    -2.074932292
 H      -12.745369693    19.796644183    -2.180415775
 H      -10.761323508    14.096864519    -0.884992727
 H      -12.125168343    13.378306601    -1.731398368
 H      -12.218702990    13.625156881     0.007427455
 H      -14.517230258    16.246125995    -1.585434456
 H      -14.472951838    14.921693485    -0.407033388
 H      -14.252567776    14.593023841    -2.119369314
 H        0.351244207    14.577629378     2.582790292
 H        1.850496468    14.291444986     3.456235447
 H        1.816070272    14.093620589     1.708586418
 H        3.776739115    17.308735653     2.414907227
 H        3.867060540    15.739822074     1.590269949
 H        3.782411437    15.818577210     3.344036267
 H        1.411650509    19.091813173    -1.381239674
 H        1.527448661    20.596478802    -0.477998778
 H        0.027935331    19.679515803    -0.439814647
 H        1.674494239    19.238524540     2.991664884
 H        0.166731325    19.726904132     2.193989517
 H        1.630062054    20.677845365     1.984963627
 H       -6.370754173    14.284393436     0.640490306
 H       -7.694810338    13.652721043    -0.322270411
 H       -6.343606857    14.437562268    -1.124712204
 H       -6.010759369    10.696368151    -1.852478637
 H       -6.125399199    12.291925408    -2.614809524
 H       -7.493408535    11.633309108    -1.725988228
 H       -5.280939344    12.749688017     2.563556083
 H       -3.891302890    13.330057692     3.469383956
 H       -3.858029878    11.712434579     2.782207782
 H       -1.500718520    13.896413255     0.671848536
 H       -1.560558759    12.436156511     1.683999685
 H       -1.787808006    14.031258864     2.398664681
 H       -2.519255369    -1.697183308    -0.718137244
 H       -2.429502754    -1.690185596    -2.472299736
 H       -2.698671136    -0.177358676    -1.619049857
 H        0.898136227    -0.115254986    -2.954962898
 H       -0.639472260     0.767959615    -2.978324595
 H       -0.516500993    -0.821659583    -3.720960654
 H       -0.457258465    -2.976779780     0.764194408
 H       -0.640829303    -2.858117771     2.507805335
 H        0.906265967    -2.461443878     1.774235179
 H       -0.656356517     0.859085887     2.876112800
 H        0.778879915    -0.165226384     3.054445022
 H       -0.770055743    -0.688955366     3.702611143

