187   

Si        0.000000000     0.000000000     0.000000000
 C        1.865455059     0.000000000     0.000000000
 C       -0.677001540     1.711779824     0.000000000
 C        0.143857684     2.813556343     0.260434042
 C       -0.380997508     4.105869625     0.257584151
 C       -1.736877496     4.326001753     0.001668886
 C       -2.558853364     3.220548296    -0.255993544
 C       -2.037321083     1.929841476    -0.257355839
 C       -2.329144725     5.659560786    -0.011489475
 C       -1.653229186     6.798684100     0.215628349
 C       -2.243848206     8.132928993     0.202857074
 C       -3.600159607     8.354288172    -0.053047396
 C       -4.122755882     9.646822619    -0.055424068
 C       -3.294363056    10.747977858     0.186046354
 C       -1.934683503    10.530360490     0.441296888
 C       -1.418636311     9.236971962     0.453814737
Si       -3.971186487    12.458785335     0.185747049
 C       -2.625589597    13.649316471    -0.144590115
 C       -2.350364467    14.747620330     0.571088133
 C       -1.257835189    15.672153682     0.264307698
 C       -1.063862872    16.792337730     1.085853575
 C       -0.044643386    17.696446786     0.837788002
 C        0.857200246    17.481361469    -0.228640239
 C        0.664084713    16.356066053    -1.053448839
 C       -0.390653386    15.484911850    -0.815650550
 N        1.881441097    18.407361238    -0.463379793
 C        2.522438078    19.038374710     0.701425802
 C        2.778609206    18.156653115    -1.598077358
 C        2.991875774    18.077606591     1.809988672
 C        4.279577022    17.300064243     1.485520401
 N        5.517173951    18.097248437     1.362317242
 C        5.754512807    18.633993008     0.071260402
 C        5.934099520    17.715514311    -0.983265835
 C        6.169715958    18.170633255    -2.269508346
 C        6.275395109    19.543984756    -2.540543723
 C        6.128388781    20.448054132    -1.486541545
 C        5.881971676    20.005760033    -0.190682880
 C        5.748788798    19.007276381     2.494019737
 C        6.525194825    19.967351730    -3.919686971
 C        6.646121706    21.244114407    -4.306933452
Si        6.958414447    21.754799302    -6.035965457
 C        6.235489242    20.553773179    -7.226909065
 C        5.036676064    19.902704989    -6.905185526
 C        4.470197048    18.989825770    -7.790026544
 C        5.078001852    18.713746603    -9.022141119
 C        6.268536802    19.371055217    -9.343657463
 C        6.841216828    20.283327297    -8.457525427
 C        4.445228451    17.748939778    -9.915136458
 C        4.923182425    17.391051156   -11.119033571
 C        4.288684270    16.425822277   -12.010646592
 C        3.098244501    15.769923180   -11.686810247
 C        2.525735300    14.853975131   -12.569137664
 C        3.129677465    14.578885625   -13.799988056
 C        4.323425132    15.236090509   -14.127565932
 C        4.895500758    16.145539802   -13.242365183
Si        2.386309557    13.372564901   -14.975271735
 C        0.632850297    12.946083720   -14.503285384
 C        2.431529778    14.131913035   -16.720239191
 C        3.423003024    11.776191284   -14.983475804
 C        6.153627114    23.455199040    -6.314756633
 C        8.834218595    21.911393133    -6.305178125
 C       -5.278004248    12.627270748    -1.187552026
 C       -4.802813510    12.797320955     1.861855654
 C       -0.658039252    -0.900417320    -1.542665472
 C       -0.610667206    -0.925638723     1.547108981
 H        1.211882981     2.704552824     0.468340702
 H        0.280195189     4.946599553     0.459833863
 H       -3.617758632     3.369817584    -0.458273508
 H       -2.726568905     1.107113471    -0.467387837
 H       -3.401519454     5.681896997    -0.225885561
 H       -0.580665925     6.775774793     0.430291013
 H       -4.262450991     7.513826468    -0.251127057
 H       -5.191656857     9.757838405    -0.256794992
 H       -1.242450104    11.355771079     0.638152881
 H       -0.360410839     9.085597704     0.658111674
 H       -2.028380671    13.388449977    -1.034606386
 H       -2.929210049    15.040809961     1.456488099
 H       -1.734868606    16.965374625     1.927730358
 H        0.055862689    18.576991603     1.465070753
 H        1.333099979    16.155556729    -1.883923492
 H       -0.527410289    14.629079135    -1.479054795
 H        3.489133924    18.996706850    -1.712785718
 H        2.184773315    18.113326137    -2.529646367
 H        3.365862287    17.228604353    -1.502480028
 H        5.686653099    18.430208982     3.433381077
 H        5.043565162    19.850556701     2.555136419
 H        6.775686164    19.409991563     2.427715526
 H        5.896773286    16.647569309    -0.776072842
 H        6.294946675    17.449641211    -3.078772531
 H        6.210353905    21.519612340    -1.672614004
 H        5.776139553    20.734125939     0.607451299
 H        6.599111192    19.124610920    -4.622579030
 H        6.579637573    22.071520796    -3.584829786
 H        4.513801658    20.083289433    -5.959531347
 H        3.542068719    18.488992093    -7.520565207
 H        6.760371622    19.175644106   -10.294704418
 H        7.772447140    20.766642978    -8.765211734
 H        3.517062530    17.313246795    -9.533449384
 H        5.850724710    17.826717640   -11.501867865
 H        2.605382705    15.969552525   -10.737024906
 H        1.594153702    14.371884261   -12.259796456
 H        4.839799633    15.061511763   -15.075742697
 H        5.823598636    16.644898651   -13.513980739
 H        3.377516533    19.658861579     0.347794676
 H        1.785368018    19.760164361     1.130325113
 H        3.121726021    18.649268637     2.748004716
 H        2.188649494    17.342102166     2.028985327
 H        4.466980636    16.554028723     2.295341001
 H        4.130831732    16.710000055     0.553579109
 H        2.263354951    -1.029686016    -0.041551789
 H        2.274723258     0.478139924     0.907173231
 H        2.261600342     0.544053107    -0.876657281
 H        0.179441257    12.256840563   -15.237933293
 H        0.001104833    13.852139755   -14.465173572
 H        0.582107808    12.457642213   -13.514389011
 H        3.521541930    14.315509538   -16.949521909
 C        1.871658584    13.200370689   -17.809833832
 C        1.700955720    15.484949775   -16.793143589
 H        2.882227289    11.065719890   -15.673444757
 C        4.851023138    11.970335881   -15.523857382
 C        3.506933680    11.119937481   -13.593176768
 H        6.633495019    24.154291938    -5.570597463
 C        6.400883628    24.015312889    -7.726160668
 C        4.638651786    23.433880828    -6.043047954
 H        8.968554233    22.267063466    -7.367668333
 C        9.497409183    22.941066192    -5.373015109
 C        9.560405548    20.562557338    -6.155409571
 H       -6.097582942    11.896187270    -0.929265764
 C       -5.898830170    14.033489926    -1.257032151
 C       -4.727059321    12.252390466    -2.574949455
 H       -5.108499038    13.883478468     1.842700749
 C       -6.067117822    11.951465098     2.096925913
 C       -3.842036795    12.588998170     3.046957254
 H       -1.782633569    -0.900477883    -1.444057301
 C       -0.300622942    -0.168950001    -2.849229929
 C       -0.193892153    -2.364262382    -1.644126437
 H       -0.111680380    -1.937154828     1.512944289
 C       -0.190226747    -0.229944441     2.854860279
 C       -2.133543634    -1.146972669     1.574564060
 H        2.391292058    12.235127590   -17.866209811
 H        1.985637675    13.668467375   -18.798497988
 H        0.799406411    12.996463995   -17.689387908
 H        2.086463964    16.225331023   -16.077526235
 H        0.618812138    15.398141691   -16.628172527
 H        1.827008275    15.928314071   -17.791196244
 H        4.880012548    12.356691979   -16.550497634
 H        5.378277656    11.005298354   -15.545139287
 H        5.458540460    12.636018950   -14.894621418
 H        2.526085821    10.872213178   -13.167307070
 H        4.041093917    11.740763706   -12.859471979
 H        4.061796348    10.172824238   -13.656426282
 H        7.464219236    24.150308847    -7.961815938
 H        5.936842738    25.007591523    -7.823797215
 H        5.959091566    23.392899714    -8.517651424
 H        4.380511796    23.095865085    -5.030290165
 H        4.086181298    22.803181447    -6.754624760
 H        4.222992406    24.446466017    -6.145307586
 H        9.085401333    23.952870234    -5.476860309
 H       10.569225946    23.021977841    -5.605689514
 H        9.435251045    22.659952632    -4.312430848
 H        9.181520757    19.783758800    -6.831696922
 H        9.511377776    20.162306175    -5.132251318
 H       10.627941274    20.680254922    -6.389161395
 H       -6.393275512    14.337746152    -0.325605048
 H       -6.670075022    14.066567811    -2.039653564
 H       -5.166319413    14.812284005    -1.514398373
 H       -4.301388024    11.239878267    -2.615749726
 H       -3.958000714    12.950770583    -2.932818087
 H       -5.534873925    12.275661914    -3.320026610
 H       -6.850372633    12.121272014     1.347304291
 H       -6.513952484    12.205998913     3.068997875
 H       -5.860551952    10.872379349     2.129853987
 H       -2.924805771    13.189868497     2.980389275
 H       -3.538040939    11.539148488     3.168195514
 H       -4.333407543    12.877519275     3.986636122
 H       -0.652191997     0.872550131    -2.873268500
 H       -0.773440390    -0.672042347    -3.704662542
 H        0.778010026    -0.158556730    -3.054443105
 H       -0.477935193    -2.971850279    -0.775232812
 H        0.891476433    -2.460983661    -1.779640233
 H       -0.656123594    -2.844541706    -2.518837149
 H        0.895785084    -0.105568930     2.953816267
 H       -0.510717477    -0.828343996     3.719718809
 H       -0.651150443     0.760670284     2.978614131
 H       -2.507669176    -1.712504373     0.711892522
 H       -2.700184765    -0.207070062     1.634389561
 H       -2.412077178    -1.728387334     2.465640376

