187   

Si        0.000000000     0.000000000     0.000000000
 C        1.864881907     0.000000000     0.000000000
 C       -0.682592963     1.708043590     0.000000000
 C        0.149321006     2.818749026     0.170110524
 C       -0.381724205     4.108193630     0.168011954
 C       -1.752153938     4.314891092    -0.008912061
 C       -2.584348895     3.200741541    -0.181849736
 C       -2.057685612     1.912613133    -0.177720751
 C       -2.350461670     5.644342521    -0.018053236
 C       -1.663519469     6.788298015     0.139191899
 C       -2.259389760     8.118912087     0.130449496
 C       -3.629473807     8.324506420    -0.046487647
 C       -4.159486649     9.613786895    -0.048453400
 C       -3.333647865    10.721609303     0.166287511
 C       -1.961028703    10.517118287     0.353919761
 C       -1.430626589     9.231169081     0.326551945
Si       -4.000008240    12.432314004     0.169911795
 C       -3.440854970    13.386199019     1.626818442
 C       -3.154461198    12.860027626     2.825980996
 C       -2.708120315    13.649382780     3.976484964
 C       -2.432710991    13.007223087     5.190435706
 C       -2.007514899    13.719301118     6.304238297
 C       -1.904167336    15.123119345     6.257415443
 C       -2.183267545    15.769432054     5.034944346
 C       -2.548369147    15.037640369     3.915245837
 N       -1.477263038    15.897328537     7.360400395
 C       -1.402472335    15.200799883     8.664800039
 C       -2.111326404    17.230730473     7.431872117
 C       -0.698957909    16.068924517     9.727220025
 C        0.063907980    15.208078555    10.755294239
 N        1.483003220    14.939129614    10.428484692
 C        1.615683905    14.277777501     9.160520476
 C        1.456871857    12.883855836     9.165976421
 C        1.570633487    12.173348568     7.979549388
 C        1.822464657    12.834827655     6.769451233
 C        1.983554699    14.223479648     6.776216005
 C        1.896471734    14.943417934     7.961879151
 C        2.336121995    16.134109369    10.571169957
 C        1.934530360    12.042966055     5.542428989
 C        2.172990515    12.574995335     4.336789096
Si        2.314363457    11.596122111     2.801602788
 C        1.275616029    10.082323455     2.902094505
 C       -0.027889816    10.163413804     3.406905359
 C       -0.826199501     9.023223189     3.488574136
 C       -0.332551785     7.776962872     3.091322746
 C        0.973511729     7.697748466     2.591145335
 C        1.766296101     8.837678505     2.490892156
 C       -1.121353206     6.552622032     3.154652035
 C       -2.383173151     6.468798770     3.607791495
 C       -3.150001515     5.228599006     3.659979676
 C       -2.627915841     4.003085108     3.235985460
 C       -3.392845804     2.839953115     3.301931779
 C       -4.702880837     2.878451472     3.792277183
 C       -5.231392705     4.106326169     4.209283359
 C       -4.466041644     5.267642367     4.136838311
Si       -5.700627836     1.333953047     3.873211500
 C       -4.626018807    -0.123878311     4.319028509
 C       -7.098746282     1.526798080     5.149543693
 C       -6.494448624     1.050418924     2.165408693
 C        1.694019949    12.694501529     1.375622828
 C        4.136558859    11.157128729     2.487856342
 C       -3.426924990    13.323222959    -1.411216678
 C       -5.904598206    12.408773576     0.186782461
 C       -0.670124813    -0.900391657    -1.536046555
 C       -0.603054828    -0.910884284     1.560654048
 H        1.228924794     2.719149814     0.308747377
 H        0.286312533     4.957340620     0.299099563
 H       -3.655251055     3.343682092    -0.317173827
 H       -2.753745613     1.081094723    -0.320737790
 H       -3.435009442     5.658923446    -0.157670657
 H       -0.579100476     6.775672109     0.288237110
 H       -4.295232252     7.475679569    -0.189576843
 H       -5.235372033     9.711637439    -0.213008972
 H       -1.268837165    11.348031848     0.535992853
 H       -0.360364975     9.088495275     0.481587866
 H       -3.374943160    14.470976287     1.451360172
 H       -3.217270894    11.782803286     3.032776045
 H       -2.536409918    11.923523052     5.264424102
 H       -1.770233190    13.173539690     7.212756993
 H       -2.082107285    16.846969262     4.949290323
 H       -2.730641857    15.564859508     2.978162578
 H       -2.008215383    17.681795251     8.428582941
 H       -3.186086167    17.210952394     7.185633833
 H       -1.594712696    17.901922291     6.721342258
 H        2.357952550    16.418202410    11.637339330
 H        2.013859764    17.007298796     9.984554378
 H        3.369392521    15.878657985    10.278596304
 H        1.259158831    12.371605799    10.105516233
 H        1.456514772    11.089646819     7.990488427
 H        2.169605491    14.758626519     5.844643898
 H        2.013632829    16.023406173     7.943907182
 H        1.788292467    10.966152101     5.702947006
 H        2.312532179    13.659636166     4.206770875
 H       -0.461403584    11.112282408     3.745806286
 H       -1.843683822     9.110492479     3.865294541
 H        1.376398923     6.736482661     2.279302084
 H        2.772777731     8.714663301     2.082807277
 H       -0.604331769     5.656472535     2.794288932
 H       -2.911985448     7.357230503     3.962421188
 H       -1.613862198     3.946302677     2.839349686
 H       -2.928171214     1.912987501     2.951172638
 H       -6.249383412     4.198645527     4.595706463
 H       -4.896724787     6.213461147     4.458791342
 H       -2.405950023    14.890865019     9.026138361
 H       -0.801440797    14.270029226     8.507174288
 H        0.005946442    16.764835969     9.228078488
 H       -1.435571030    16.702254552    10.251880574
 H        0.037670924    15.699230622    11.753043237
 H       -0.435600815    14.221527858    10.886741194
 H        2.262568053    -1.030159666    -0.028265474
 H        2.274104484     0.489309477     0.901146103
 H        2.262349134     0.531676875    -0.883361702
 H       -5.213237169    -1.057777928     4.355355454
 H       -4.165271054     0.020389822     5.313599564
 H       -3.806682328    -0.268902629     3.592310517
 H       -7.706931256     2.416458005     4.813852705
 C       -8.043308070     0.312526050     5.212425325
 C       -6.571917900     1.819836952     6.566381994
 H       -7.147878085     0.138109679     2.274698136
 C       -7.382755769     2.225813811     1.718370793
 C       -5.459291839     0.766045363     1.062268174
 H        2.468553061    13.506530735     1.255639372
 C        1.580945783    11.944713422     0.037752364
 C        0.351961452    13.370614586     1.701867658
 H        4.151426194    10.531998879     1.548845419
 C        5.029484383    12.388302709     2.247461037
 C        4.745065900    10.324493037     3.631290877
 H       -3.902510655    14.345689037    -1.378871753
 C       -1.901188590    13.512180035    -1.477627381
 C       -3.896128033    12.616750292    -2.695364168
 H       -6.217389146    11.763774878    -0.684095686
 C       -6.470905995    11.787048089     1.476544957
 C       -6.533097828    13.800621849    -0.007125743
 H       -1.794395184    -0.897061701    -1.431734000
 C       -0.318849129    -0.171775247    -2.845849161
 C       -0.209234316    -2.365153322    -1.637667146
 H       -0.009932876    -1.869626128     1.597740065
 C       -0.316842958    -0.119494923     2.850232990
 C       -2.097052818    -1.277737116     1.530575358
 H       -8.528678961     0.089280898     4.253706146
 H       -8.855133849     0.505660978     5.928766357
 H       -7.543007374    -0.602694857     5.555461816
 H       -5.910875128     2.696838376     6.614393334
 H       -6.025825338     0.972502207     7.002330640
 H       -7.410892874     2.029073295     7.245094164
 H       -8.209058825     2.435323258     2.409222646
 H       -7.846618172     2.000425057     0.747617515
 H       -6.817380067     3.159316168     1.581146960
 H       -4.876534991    -0.146314269     1.245519975
 H       -4.753541764     1.597564455     0.915597911
 H       -5.966751438     0.617698153     0.098444854
 H        2.535804119    11.530958843    -0.310204048
 H        1.237621053    12.629789820    -0.750909890
 H        0.854769139    11.119291506     0.065343709
 H        0.390167714    14.011862480     2.594461913
 H       -0.472021076    12.657848984     1.859049042
 H        0.043354208    14.021351088     0.871927273
 H        4.723909791    12.985279137     1.378949585
 H        6.062987794    12.069339460     2.049279570
 H        5.077651330    13.058696605     3.116845495
 H        4.191365198     9.401017029     3.848163794
 H        4.821890888    10.888633082     4.572586834
 H        5.767573969    10.016413571     3.372245162
 H       -1.491335979    14.050173638    -0.611861287
 H       -1.633164950    14.103274629    -2.364507494
 H       -1.357743680    12.560336166    -1.568329080
 H       -4.987053480    12.522530381    -2.768442698
 H       -3.467048442    11.610683066    -2.810946127
 H       -3.578043081    13.188698234    -3.578699387
 H       -6.104240094    10.770300963     1.673815809
 H       -7.565221643    11.713178120     1.411428822
 H       -6.254414305    12.392011321     2.369375056
 H       -6.253766143    14.275993019    -0.955965110
 H       -6.286149862    14.498521071     0.804737059
 H       -7.629615369    13.718910415    -0.017781308
 H       -0.671164872     0.869529316    -2.870321166
 H       -0.795794432    -0.676794054    -3.697906419
 H        0.758571248    -0.161526878    -3.056855066
 H       -0.481800706    -2.969239396    -0.762675194
 H        0.874239462    -2.463540660    -1.786874070
 H       -0.682902895    -2.848391026    -2.504584364
 H        0.745890751     0.115731809     2.991258097
 H       -0.619210910    -0.707092848     3.728848393
 H       -0.874546399     0.827242856     2.904264162
 H       -2.372470717    -1.914532615     0.680538104
 H       -2.750366753    -0.393061252     1.515730900
 H       -2.361959445    -1.846046128     2.434345256

