187   

Si        0.000000000     0.000000000     0.000000000
 C        1.864837594     0.000000000     0.000000000
 C       -0.667787913     1.715919555     0.000000000
 C        0.017968279     2.737152069     0.667449520
 C       -0.479248445     4.039863872     0.673464923
 C       -1.671478536     4.350990622     0.014657167
 C       -2.360589431     3.326409907    -0.647157156
 C       -1.869548885     2.023665254    -0.649882535
 C       -2.231780467     5.696831765    -0.007804198
 C       -1.685036220     6.771096108     0.585616808
 C       -2.260275377     8.111570500     0.552683660
 C       -1.588849883     9.148592637     1.213875314
 C       -2.099598419    10.443517236     1.209703952
 C       -3.305446009    10.730391995     0.555840700
 C       -3.979631477     9.695194235    -0.098998175
 C       -3.460984101     8.400839166    -0.101073998
Si       -3.964084887    12.448394398     0.561648789
 C       -5.194305137    12.744985512    -0.755680402
 C       -5.220570894    12.132098675    -1.946172720
 C       -6.227116564    12.401212771    -2.974342258
 C       -6.158203813    11.698911750    -4.187686690
 C       -7.086995881    11.918479469    -5.190415020
 C       -8.130868338    12.846428456    -4.997169635
 C       -8.195689681    13.560512840    -3.791716561
 C       -7.237958039    13.349267033    -2.805255894
 N       -9.052613557    13.030414966    -6.058022820
 C       -9.726781909    11.789140766    -6.503385990
 C       -9.969620235    14.175646224    -5.932861534
 C      -10.100456364    10.786645020    -5.396409025
 C      -11.023220294    11.400499811    -4.329017972
 N      -11.495473407    10.435852148    -3.324975295
 C      -10.570952047     9.905574930    -2.407300593
 C       -9.339894736    10.540547219    -2.148040311
 C       -8.441617545    10.001230457    -1.239120807
 C       -8.754158598     8.846768109    -0.509084140
 C       -9.990749358     8.236744782    -0.741990391
 C      -10.890007958     8.749797510    -1.665864964
 C      -12.506492212     9.504053253    -3.854844168
 C       -7.781006457     8.304613502     0.442764362
 C       -8.001424894     7.206842291     1.178701661
Si       -6.878243577     6.432191687     2.393384480
 C       -7.763599333     6.123038043     3.976263561
 C       -8.980539064     6.754856065     4.250247123
 C       -9.646272078     6.515940189     5.452084484
 C       -9.107276973     5.650011587     6.407235380
 C       -7.884426673     5.022651563     6.132410697
 C       -7.218506952     5.256190167     4.932453198
 C       -9.768761463     5.370761155     7.677592824
 C      -10.940317417     5.904154807     8.063556881
 C      -11.602303429     5.625405707     9.333584542
 C      -11.066726330     4.757492699    10.288735147
 C      -11.733855791     4.519741277    11.490364687
 C      -12.950851082     5.151090469    11.765418699
 C      -13.490125850     6.022293324    10.809201186
 C      -12.824751083     6.253313892     9.608495986
Si      -13.844129777     4.848519610    13.345992630
 C      -12.765666478     3.966271514    14.586507639
 C      -14.408999523     6.527887110    14.042161272
 C      -15.385525911     3.783063594    13.010472198
 C       -6.323322491     4.760757875     1.666012637
 C       -5.356561648     7.518589083     2.735622210
 C       -4.860226084    12.740528347     2.216384240
 C       -2.535987550    13.689438495     0.396366185
 C       -0.644271651    -0.935417453    -1.528017063
 C       -0.637262815    -0.893794413     1.555127690
 H        0.957132664     2.554413880     1.197157217
 H        0.073740767     4.816668792     1.198144405
 H       -3.292821655     3.547203824    -1.164547444
 H       -2.454031754     1.265446448    -1.178195707
 H       -3.163356419     5.791877488    -0.576520804
 H       -0.749700241     6.684467131     1.144970040
 H       -0.654620020     8.943760029     1.732826414
 H       -1.526974316    11.211887041     1.736605157
 H       -4.932203233     9.856021531    -0.615972380
 H       -4.004841759     7.614219800    -0.623025961
 H       -5.944373100    13.510606857    -0.496678106
 H       -4.480359787    11.378976870    -2.248652128
 H       -5.363434479    10.968617119    -4.344827389
 H       -7.012291564    11.383131028    -6.133771831
 H       -8.984956269    14.284322518    -3.613531193
 H       -7.299895621    13.924170356    -1.879946859
 H      -10.473325142    14.334238991    -6.902631378
 H       -9.385056728    15.090627595    -5.727488225
 H      -10.738958652    14.064131270    -5.153816247
 H      -13.086451130     9.979210341    -4.662112135
 H      -13.222341815     9.256642033    -3.049010807
 H      -12.073063537     8.568737846    -4.245348387
 H       -9.065724294    11.451263875    -2.676613035
 H       -7.481426114    10.501228820    -1.086365808
 H      -10.265980253     7.337390215    -0.188187058
 H      -11.840602157     8.246745175    -1.806734689
 H       -6.856760497     8.893430384     0.507965289
 H       -8.947211100     6.645777399     1.077772749
 H       -9.446591605     7.447932287     3.542403448
 H      -10.594347375     7.015691160     5.641511878
 H       -7.448055522     4.345499360     6.863807985
 H       -6.267309195     4.740689429     4.771656289
 H       -9.234233695     4.671863400     8.327598481
 H      -11.474294602     6.603016367     7.413083550
 H      -10.119014688     4.256367493    10.100601893
 H      -11.265672517     3.829976568    12.197942782
 H      -14.437820898     6.544070044    10.969512600
 H      -13.260283797     6.931759024     8.877378740
 H      -10.630548266    12.057602808    -7.091652003
 H       -9.029463576    11.292333066    -7.221111499
 H      -10.584035508     9.904084349    -5.854630159
 H       -9.183597372    10.395098426    -4.907976432
 H      -10.502539039    12.230690565    -3.795428295
 H      -11.916163401    11.861691674    -4.808591529
 H        2.263119378    -1.029572081    -0.039108792
 H        2.277586544     0.482933530     0.902695857
 H        2.257797378     0.542849071    -0.879282494
 H      -13.294890252     3.827439035    15.546087090
 H      -11.847222308     4.544620090    14.794889377
 H      -12.461337300     2.967682547    14.227196909
 H      -15.087115024     6.974905367    13.258110408
 C      -15.212862747     6.411947007    15.349453262
 C      -13.235583250     7.500545228    14.258979048
 H      -15.844895235     3.585352221    14.021889037
 C      -16.442018350     4.482098530    12.136283000
 C      -15.036606754     2.426445589    12.371139341
 H       -5.475376604     4.402089042     2.318527981
 C       -7.433173664     3.695002217     1.703472491
 C       -5.801962877     4.884240494     0.224034807
 H       -5.096366061     8.012456379     1.752331458
 C       -5.658037140     8.628121062     3.759386743
 C       -4.116129788     6.739912107     3.206204419
 H       -5.098893556    13.842321370     2.251110161
 C       -6.184708452    11.961428844     2.299338180
 C       -3.995784829    12.400501403     3.441990693
 H       -1.898569237    13.559005739     1.318261590
 C       -1.657381268    13.406081643    -0.835264380
 C       -3.006214671    15.153988358     0.348600713
 H       -1.770548949    -0.913451118    -1.454267131
 C       -0.242689587    -0.257068391    -2.850410642
 C       -0.207355486    -2.410895347    -1.572006623
 H       -0.184397789    -1.926487647     1.525737233
 C       -0.185165627    -0.211189497     2.858997457
 C       -2.169168569    -1.042461120     1.580669775
 H      -16.110728357     5.787870539    15.253832597
 H      -15.562077566     7.406074979    15.664502330
 H      -14.618439136     6.017326811    16.184107688
 H      -12.645709350     7.677950451    13.348134997
 H      -12.541878319     7.168727147    15.042756237
 H      -13.613631469     8.482955095    14.575837502
 H      -16.805754993     5.425705511    12.562142152
 H      -17.324896874     3.835666525    12.026078148
 H      -16.084457216     4.686515579    11.117172799
 H      -14.346284741     1.823629258    12.975042336
 H      -14.598954025     2.527686262    11.367433210
 H      -15.946784726     1.821812252    12.250083581
 H       -7.828556943     3.513196882     2.712630788
 H       -7.040855140     2.731031840     1.349788322
 H       -8.285120331     3.938961126     1.055232200
 H       -4.974082330     5.599515097     0.127494578
 H       -6.584095812     5.182181161    -0.488457185
 H       -5.419354404     3.913078767    -0.120378306
 H       -6.541992983     9.230983835     3.509882823
 H       -4.810232554     9.326592151     3.815396515
 H       -5.806024320     8.238320339     4.776309107
 H       -3.758632610     6.007025252     2.469323248
 H       -4.265521610     6.219206405     4.159840447
 H       -3.278015156     7.436383009     3.361418548
 H       -6.905848482    12.241518061     1.519006657
 H       -6.681177971    12.159374091     3.259932642
 H       -6.046921811    10.870639504     2.244092826
 H       -3.066636149    12.981338121     3.496601730
 H       -3.727543835    11.335053984     3.494536355
 H       -4.549436656    12.622602932     4.366166959
 H       -1.230469812    12.393364340    -0.842765666
 H       -0.804326522    14.099042614    -0.858438345
 H       -2.193382815    13.545835970    -1.784956101
 H       -3.585249278    15.456684104     1.230234006
 H       -3.608576662    15.379999162    -0.542573021
 H       -2.136532269    15.826067850     0.308632587
 H       -0.557202005     0.794105635    -2.915213066
 H       -0.716358932    -0.772669913    -3.697937188
 H        0.839383789    -0.288835010    -3.035917055
 H       -0.528149047    -2.985729522    -0.693600430
 H        0.878992813    -2.533804208    -1.673895366
 H       -0.655440326    -2.908645552    -2.444347562
 H        0.905447172    -0.138775697     2.957898860
 H       -0.534073634    -0.789610622     3.726670573
 H       -0.600439828     0.799976040     2.977603885
 H       -2.566090813    -1.609370744     0.728978535
 H       -2.692173635    -0.075909135     1.613605851
 H       -2.478904010    -1.589212846     2.483182727

