187   

Si        0.000000000     0.000000000     0.000000000
 C        1.865597114     0.000000000     0.000000000
 C       -0.682407163     1.709496542     0.000000000
 C        0.143875003     2.821011994    -0.191882854
 C       -0.388952218     4.110217540    -0.189133853
 C       -1.758370411     4.316921290    -0.005042541
 C       -2.585692330     3.201593549     0.184554610
 C       -2.056066657     1.914449027     0.189651010
 C       -2.361103671     5.645618844     0.005454868
 C       -1.684870588     6.795557708    -0.156793958
 C       -2.291382173     8.122800998    -0.145673262
 C       -1.468047191     9.241993524    -0.327210277
 C       -2.002737590    10.527919654    -0.324007915
 C       -3.378878897    10.722453006    -0.155352413
 C       -4.204109229     9.606754735     0.023382611
 C       -3.663299292     8.321820452     0.033197101
Si       -4.108647591    12.410948873    -0.147552476
 C       -5.848987034    12.321644947    -0.697991769
 C       -6.903172116    12.863144655    -0.074043345
 C       -8.280982135    12.762227871    -0.558390145
 C       -9.307829530    13.370005733     0.178486520
 C      -10.627060019    13.302855157    -0.237888002
 C      -10.962551265    12.657805673    -1.448804181
 C       -9.932254489    12.047940850    -2.189675227
 C       -8.621184779    12.085298619    -1.732294772
 N      -12.303738828    12.597758865    -1.857641748
 C      -13.179870327    13.729481800    -1.507779611
 C      -12.582113381    11.999185346    -3.170700690
 C      -12.681450987    15.114247867    -1.954634074
 C      -12.885695080    15.409183463    -3.450206762
 N      -14.263908841    15.746070542    -3.848662178
 C      -14.906020970    16.786473840    -3.158759262
 C      -14.153045047    17.890488342    -2.701108893
 C      -14.770799427    18.925472808    -2.018819755
 C      -16.157464782    18.932602830    -1.808899999
 C      -16.904605750    17.854531285    -2.290213365
 C      -16.299780074    16.798664919    -2.960174471
 C      -15.083045466    14.588710476    -4.235512633
 C      -16.759382770    20.051328559    -1.081177316
 C      -18.069439580    20.159746326    -0.824833295
Si      -18.878980250    21.528166413     0.076191761
 C      -19.971246442    20.842709207     1.388340106
 C      -19.765387839    19.545909906     1.870785986
 C      -20.590622799    19.022051385     2.865206811
 C      -21.630224695    19.783922158     3.405688028
 C      -21.830248950    21.084803396     2.924465830
 C      -21.011232076    21.609719282     1.928236850
 C      -22.517920419    19.277040645     4.447007724
 C      -22.434898278    18.052035152     4.993299562
 C      -23.322145828    17.544465511     6.034571089
 C      -24.364802443    18.303140374     6.572693521
 C      -25.189401084    17.777883530     7.567518381
 C      -24.983657146    16.482123160     8.051393793
 C      -23.938318807    15.719132251     7.513513673
 C      -23.121228121    16.243674444     6.516028500
Si      -26.063376068    15.774876455     9.364000920
 C      -27.092386900    17.093351818    10.190479902
 C      -27.227942764    14.480188908     8.596145073
 C      -24.956666411    14.905814940    10.645918041
 C      -17.597950447    22.684705599     0.874190131
 C      -19.923301755    22.531657093    -1.157979136
 C       -3.967421810    13.134613038     1.605020870
 C       -3.153055617    13.534798204    -1.349504708
 C       -0.599504622    -0.930108708    -1.549053981
 C       -0.661278416    -0.898523093     1.541968885
 H        1.222142501     2.722175079    -0.344213389
 H        0.276573429     4.958943758    -0.335618687
 H       -3.655184790     3.340584138     0.331483241
 H       -2.749894513     1.083890694     0.348066065
 H       -3.444217470     5.654700411     0.160312764
 H       -0.602103388     6.787877021    -0.311466462
 H       -0.397555338     9.108256928    -0.469363502
 H       -1.311473311    11.363452043    -0.462684054
 H       -5.286703733     9.701469211     0.160362543
 H       -4.324435414     7.469418813     0.178554856
 H       -5.973356906    11.763855394    -1.641469055
 H       -6.813880165    13.429833270     0.861848860
 H       -9.068908213    13.895022404     1.104174155
 H      -11.403127662    13.751443659     0.375856097
 H      -10.144666693    11.535352594    -3.121706334
 H       -7.844766066    11.588478208    -2.317039084
 H      -13.666937383    12.003844714    -3.367597275
 H      -12.267300826    10.938134376    -3.155112802
 H      -12.071051368    12.504803945    -4.006482501
 H      -14.466247045    13.849916972    -4.773443191
 H      -15.865068893    14.924147736    -4.943406970
 H      -15.571994917    14.085759935    -3.385096091
 H      -13.082441327    17.933640465    -2.880423869
 H      -14.166434500    19.757032769    -1.654153954
 H      -17.985921103    17.833940563    -2.142054626
 H      -16.919881406    15.982247410    -3.314406512
 H      -16.025798189    20.801635575    -0.758764003
 H      -18.780663527    19.391504575    -1.172256389
 H      -18.963899990    18.905022212     1.488868581
 H      -20.414630344    18.008436992     3.220733390
 H      -22.634603568    21.694080381     3.331954744
 H      -21.215585948    22.629292719     1.590382402
 H      -23.289427592    19.980669457     4.773107209
 H      -21.663174281    17.348516881     4.667224223
 H      -24.543195674    19.316205954     6.216937104
 H      -25.989485617    18.418714522     7.948333955
 H      -23.729995510    14.700547874     7.852993356
 H      -22.315862093    15.635170123     6.109053253
 H      -14.196509275    13.535734453    -1.914471804
 H      -13.303228681    13.721047689    -0.397106937
 H      -13.190716151    15.891697157    -1.348035318
 H      -11.603479885    15.218970966    -1.712102289
 H      -12.236559449    16.268355679    -3.749505412
 H      -12.534020687    14.550974119    -4.063725081
 H        2.262888441    -1.030220668     0.033087642
 H        2.263055651     0.536743832     0.880459200
 H        2.273804553     0.485128032    -0.903964711
 H      -27.707502746    16.667003673    11.002918252
 H      -27.777575829    17.584567857     9.477690944
 H      -26.450577600    17.875304223    10.635629377
 H      -27.889400501    14.126640365     9.439308686
 C      -28.130143923    15.073917413     7.498817517
 C      -26.494661176    13.254747928     8.021796976
 H      -24.408455340    14.095264396    10.082921676
 C      -23.904444085    15.851219821    11.253343161
 C      -25.746038928    14.235781553    11.784597138
 H      -16.898572903    22.993258852     0.043922470
 C      -18.216720103    23.960508331     1.473047731
 C      -16.769294068    21.979403346     1.963567499
 H      -20.376722597    23.378595050    -0.566135060
 C      -19.087364643    23.140438578    -2.297355412
 C      -21.073340195    21.707282687    -1.763457954
 H       -4.511034053    14.123081565     1.578658914
 C       -4.641293597    12.243452819     2.664400507
 C       -2.514194622    13.401962065     2.036277088
 H       -2.094182737    13.577826412    -0.962081008
 C       -3.113590544    12.969391813    -2.780492798
 C       -3.701829497    14.971886719    -1.392942669
 H       -0.081526191    -1.932390722    -1.519565370
 C       -2.117619221    -1.181502477    -1.576745062
 C       -0.193675772    -0.222231183    -2.854946917
 H       -1.786064237    -0.891196039     1.444694340
 C       -0.205870718    -2.365295798     1.640861475
 C       -0.298121007    -0.170974069     2.849160849
 H      -28.754435067    15.905735927     7.849575248
 H      -28.823246101    14.306695202     7.124944749
 H      -27.563696056    15.428025150     6.625439389
 H      -25.898373058    12.714492370     8.767922479
 H      -25.834653008    13.507710446     7.180042387
 H      -27.224062756    12.530598964     7.630387298
 H      -23.263305130    16.329103398    10.498698566
 H      -23.231186774    15.289759452    11.916736696
 H      -24.346222436    16.649122103    11.864837736
 H      -26.470737128    13.490714824    11.431818529
 H      -26.286046864    14.956041031    12.413391379
 H      -25.056880966    13.700451817    12.454055135
 H      -18.738691388    24.580152140     0.732890742
 H      -17.427136038    24.595348164     1.901095415
 H      -18.917952524    23.752505542     2.293454770
 H      -16.255818337    21.075098387     1.609599481
 H      -17.372021869    21.692671115     2.837568873
 H      -15.986007169    22.653341664     2.338003072
 H      -18.296835012    23.815435916    -1.944946249
 H      -19.730673810    23.738787337    -2.958221738
 H      -18.614981546    22.379570243    -2.935336481
 H      -21.742502597    21.272092637    -1.007867897
 H      -20.721343417    20.888830462    -2.406297757
 H      -21.702731452    22.347854184    -2.397517602
 H       -5.700304733    12.037703671     2.457085827
 H       -4.608454321    12.734555941     3.647089840
 H       -4.137073547    11.273980273     2.788241539
 H       -1.991379348    14.116350865     1.387799157
 H       -1.907171654    12.486883119     2.086901740
 H       -2.496038423    13.835977143     3.046643790
 H       -2.697209898    11.953734070    -2.836981289
 H       -2.475157708    13.598512650    -3.416886624
 H       -4.101967732    12.949711890    -3.259832902
 H       -3.675952529    15.477363905    -0.418985121
 H       -4.734000702    15.024929263    -1.767819852
 H       -3.095646227    15.585953221    -2.074205255
 H       -2.480570244    -1.754870489    -0.714451891
 H       -2.384003146    -1.767983771    -2.468276602
 H       -2.703017822    -0.253411708    -1.637052670
 H        0.889670317    -0.076870246    -2.954727958
 H       -0.673046054     0.760066322    -2.974759363
 H       -0.503745776    -0.823417300    -3.721622093
 H       -0.491714539    -2.969290371     0.770074376
 H       -0.672674891    -2.844847017     2.513605662
 H        0.878647091    -2.468716214     1.778132277
 H       -0.644343478     0.872263433     2.875440773
 H        0.780717945    -0.166767732     3.053321412
 H       -0.772901570    -0.673013973     3.704242709

