187   

Si        0.000000000     0.000000000     0.000000000
 C        1.865910750     0.000000000     0.000000000
 C       -0.669386537     1.713596765     0.000000000
 C        0.155075743     2.807477321    -0.280330250
 C       -0.362728296     4.101603909    -0.277581032
 C       -1.708697238     4.335439979     0.018197981
 C       -2.532628190     3.238290482     0.300423768
 C       -2.021948455     1.942992793     0.286616576
 C       -2.284051353     5.676547487     0.030183669
 C       -1.583208041     6.791231061    -0.237842989
 C       -2.116554588     8.147394752    -0.237149868
 C       -1.239352006     9.196874979    -0.540744524
 C       -1.687385958    10.513831852    -0.556550360
 C       -3.018752187    10.813579819    -0.240979320
 C       -3.896414057     9.767508380     0.063511855
 C       -3.450346358     8.445774125     0.052507370
Si       -3.599824751    12.555173589    -0.264847544
 C       -4.905664026    12.935171844     0.952459184
 C       -5.086162338    12.352549094     2.144866486
 C       -6.168215860    12.725616116     3.059730454
 C       -6.288725329    12.066771413     4.290972254
 C       -7.300224892    12.393897777     5.181037304
 C       -8.277938085    13.348828400     4.832730889
 C       -8.168407478    13.997537024     3.590495338
 C       -7.117852668    13.697812103     2.733236299
 N       -9.298249440    13.664800492     5.757049095
 C       -9.913441466    12.529427795     6.469312475
 C      -10.296138277    14.658176876     5.323791872
 C      -10.633553220    11.524655847     5.550211428
 C       -9.891702222    10.175411400     5.522281146
 N      -10.443336399     9.216326725     4.552099676
 C      -10.205383393     9.501692493     3.186966967
 C       -8.887889933     9.793903982     2.777491936
 C       -8.613696657    10.078433373     1.450359490
 C       -9.630649392    10.057152865     0.482705575
 C      -10.929435672     9.745849061     0.887882752
 C      -11.220391719     9.461566009     2.217777577
 C      -11.798454934     8.762706793     4.904398002
 C       -9.290587659    10.365073130    -0.907137726
 C      -10.171563392    10.376847803    -1.917485109
Si       -9.719267692    10.766001137    -3.649871500
 C       -7.977373562    10.242571910    -3.933907335
 C       -7.537157616     9.087824381    -3.272114860
 C       -6.234296490     8.630148283    -3.437084486
 C       -5.343205837     9.296787403    -4.284880910
 C       -5.788926022    10.440166679    -4.958182116
 C       -7.093475357    10.907000638    -4.789086213
 C       -3.972234605     8.829831053    -4.469462312
 C       -3.478628498     7.741311836    -3.855242009
 C       -2.125668034     7.219257695    -3.992114266
 C       -1.154355180     7.808603658    -4.803403401
 C        0.125689853     7.258726912    -4.891515665
 C        0.448819971     6.093018732    -4.190839356
 C       -0.531892834     5.488808455    -3.392881260
 C       -1.803863146     6.042362356    -3.302059772
Si        2.122573219     5.334808347    -4.278452300
 C        3.340014819     6.430864528    -5.167643063
 C        2.680991609     5.017636929    -2.484435708
 C        2.023240908     3.657795505    -5.172403448
 C      -10.853955250     9.780364719    -4.814854457
 C       -9.965089546    12.619928410    -3.985934962
 C       -2.141314756    13.741724359     0.030268054
 C       -4.325831284    12.906507271    -1.985903773
 C       -0.616213435    -0.917814242    -1.549274843
 C       -0.659520977    -0.901629418     1.540297551
 H        1.218724017     2.688973967    -0.506442532
 H        0.302608059     4.938551249    -0.493111184
 H       -3.583815306     3.396387127     0.532119668
 H       -2.713068217     1.126161586     0.511215703
 H       -3.345382794     5.726523288     0.282297280
 H       -0.518789319     6.726106966    -0.493092154
 H       -0.200061984     8.981437181    -0.782636843
 H       -0.961290329    11.288057747    -0.819483872
 H       -4.948476253     9.947060193     0.308351748
 H       -4.151527226     7.645225598     0.279637442
 H       -5.568325011    13.754950728     0.623340855
 H       -4.447858435    11.543375582     2.519541807
 H       -5.563309497    11.300297133     4.566126599
 H       -7.333413354    11.912629078     6.154407433
 H       -8.903102939    14.732613332     3.278077823
 H       -7.054293511    14.223661072     1.778842366
 H      -10.973268795    14.888860222     6.163655783
 H      -10.905665566    14.331926292     4.465652253
 H       -9.782466964    15.600975435     5.062581428
 H      -11.816735183     8.462684431     5.966081347
 H      -12.043786402     7.862818241     4.311795792
 H      -12.582674867     9.518859533     4.743035725
 H       -8.081071775     9.804888463     3.508155030
 H       -7.590095297    10.323096780     1.157261913
 H      -11.737469713     9.722523720     0.156197619
 H      -12.244110289     9.230990510     2.492526898
 H       -8.221653938    10.591212967    -1.046732976
 H      -11.236737367    10.161673750    -1.753574020
 H       -8.189275607     8.512777868    -2.603971557
 H       -5.915113782     7.739050385    -2.897794548
 H       -5.113482409    10.972116684    -5.624519101
 H       -7.388804794    11.800964772    -5.342837526
 H       -3.359051019     9.425133560    -5.147469018
 H       -4.111223324     7.161625964    -3.171749073
 H       -1.386612470     8.711859067    -5.363243903
 H        0.850667121     7.769940009    -5.529213218
 H       -0.343351295     4.568581679    -2.828709213
 H       -2.553609287     5.556478885    -2.677209594
 H       -9.121752258    12.028040502     7.070914220
 H      -10.626372615    12.941909611     7.218842491
 H      -11.676577331    11.381061053     5.879877401
 H      -10.704084631    11.924559175     4.518682387
 H       -8.814033062    10.339602512     5.284506145
 H       -9.918577782     9.696689530     6.527022251
 H        2.261766758    -1.030166695     0.047347073
 H        2.261500487     0.546909318     0.875096790
 H        2.277574353     0.472821183    -0.908974620
 H        4.348327146     5.980797251    -5.181044625
 H        3.423445113     7.415559811    -4.673509917
 H        3.040648823     6.605240140    -6.216068859
 H        1.921902262     4.298873298    -2.054502908
 C        4.065255175     4.355631209    -2.375465181
 C        2.662642382     6.293809645    -1.623770784
 H        3.086326915     3.286657442    -5.240299601
 C        1.196193166     2.599518869    -4.420882071
 C        1.470671885     3.787874498    -6.603691112
 H      -11.906053775    10.113875635    -4.581524150
 C      -10.580426006    10.062433325    -6.302551051
 C      -10.770226858     8.262820348    -4.570538884
 H       -9.617902780    12.792550309    -5.045670093
 C      -11.438177958    13.059101164    -3.892275358
 C       -9.124422654    13.511634050    -3.055285538
 H       -1.413123088    13.558512831    -0.811529386
 C       -2.546903751    15.226178000    -0.010847846
 C       -1.419695670    13.461611096     1.360765011
 H       -4.430878709    14.026545372    -2.062312279
 C       -3.421417650    12.429461979    -3.134890629
 C       -5.718760290    12.280258940    -2.151558415
 H       -0.144930249    -1.941903562    -1.503283631
 C       -2.144306291    -1.098070067    -1.588888262
 C       -0.166991334    -0.243528798    -2.858248629
 H       -1.784107657    -0.900889696     1.441631780
 C       -0.196930332    -2.366100302     1.639487405
 C       -0.301761516    -0.172534339     2.848093681
 H        4.130772834     3.395923030    -2.904153245
 H        4.299188752     4.144134566    -1.321877664
 H        4.876811416     4.995015242    -2.746141056
 H        1.689041214     6.804700647    -1.624149929
 H        3.417287676     7.028636973    -1.933547250
 H        2.885832252     6.046578407    -0.576017742
 H        1.558307315     2.400584422    -3.403717444
 H        1.240423772     1.639823642    -4.955715749
 H        0.130319069     2.862081133    -4.352772216
 H        2.053562990     4.467623688    -7.237990332
 H        0.424638650     4.126861848    -6.627668006
 H        1.488372755     2.809777865    -7.105192423
 H      -10.707592506    11.117221169    -6.577353188
 H      -11.284161761     9.495224916    -6.928732295
 H       -9.573505655     9.753391727    -6.618166448
 H      -11.005703474     7.973501952    -3.537312598
 H       -9.782878938     7.845128402    -4.815614254
 H      -11.492873497     7.737320020    -5.210504395
 H      -12.097918618    12.527102085    -4.589371468
 H      -11.528586130    14.126128447    -4.141650480
 H      -11.854382721    12.944451194    -2.881808102
 H       -8.044236500    13.326576591    -3.136998971
 H       -9.400450843    13.404900862    -1.995901316
 H       -9.274672822    14.570192961    -3.308405509
 H       -3.000409380    15.528818400    -0.963025324
 H       -1.659002042    15.861370435     0.120318319
 H       -3.241998054    15.501279868     0.794803754
 H       -1.051536717    12.430236629     1.450940966
 H       -2.051059214    13.663431754     2.238177809
 H       -0.539509942    14.112398799     1.458070375
 H       -2.410505649    12.853015813    -3.105820277
 H       -3.854978520    12.724891560    -4.100784493
 H       -3.322572278    11.332403222    -3.167581388
 H       -6.443594083    12.592279754    -1.388300829
 H       -5.696243577    11.178211084    -2.159392017
 H       -6.142038283    12.573900196    -3.124285495
 H       -2.542339513    -1.645769554    -0.725479391
 H       -2.430698728    -1.679523827    -2.477463521
 H       -2.684502895    -0.143401759    -1.661618590
 H        0.922886322    -0.148090875    -2.947757829
 H       -0.604456407     0.756802682    -2.994004576
 H       -0.494351871    -0.841886991    -3.720593366
 H       -0.477642922    -2.971108766     0.767723781
 H       -0.663811896    -2.848541111     2.510701057
 H        0.887696694    -2.464133073     1.779749191
 H       -0.653244543     0.868884754     2.874287036
 H        0.776874938    -0.162709651     3.053282086
 H       -0.774631127    -0.677385449     3.702644303

