187   

Si        0.000000000     0.000000000     0.000000000
 C        1.865297246     0.000000000     0.000000000
 C       -0.674839184     1.712828354     0.000000000
 C        0.122098339     2.799837546     0.373292568
 C       -0.397037913     4.094335263     0.370515250
 C       -1.723880035     4.331091869     0.001907284
 C       -2.522676116     3.240399293    -0.366750512
 C       -2.006984198     1.947292176    -0.366408263
 C       -2.309611331     5.667477516    -0.015839526
 C       -1.654926411     6.794250148     0.312391313
 C       -2.240491446     8.130711219     0.294703060
 C       -3.568176562     8.366530013    -0.074267167
 C       -4.087470670     9.660210111    -0.077187877
 C       -3.284394188    10.748215255     0.282080113
 C       -1.954191317    10.516319431     0.652493865
 C       -1.441628772     9.221329955     0.662055291
Si       -3.965483052    12.455984758     0.279515326
 C       -2.599331754    13.669641428     0.215683712
 C       -2.447651464    14.724533149     1.026357616
 C       -1.333921754    15.672109186     0.937139718
 C       -1.283416770    16.741290693     1.845121591
 C       -0.251493860    17.664008351     1.802222423
 C        0.751976517    17.559216974     0.817644407
 C        0.708236505    16.489509574    -0.088190140
 C       -0.314157761    15.549670521    -0.009360023
 N        1.778882039    18.537342903     0.831309706
 C        1.325259097    19.924110729     0.602174813
 C        3.009585296    18.190051976     0.104975901
 C        1.218891048    20.376566597    -0.864845902
 C        0.128234086    19.657216691    -1.680166502
 N       -1.250343021    20.108519588    -1.434155078
 C       -1.518525082    21.480064437    -1.518831894
 C       -0.830076061    22.268363452    -2.468538750
 C       -1.082172530    23.626226058    -2.566711397
 C       -2.053112295    24.245024331    -1.765422083
 C       -2.753982379    23.458047730    -0.847759100
 C       -2.504050913    22.097785796    -0.723752498
 C       -1.978683599    19.330199146    -0.424816262
 C       -2.277143781    25.683387121    -1.911921426
 C       -3.174478226    26.383208053    -1.204099340
Si       -3.451082679    28.180529194    -1.390456445
 C       -3.100755858    28.753525530    -3.103313544
 C       -3.361696835    27.902832746    -4.185801755
 C       -3.103072568    28.318910605    -5.488847074
 C       -2.590658803    29.597707253    -5.744959838
 C       -2.339682125    30.447216153    -4.663972556
 C       -2.593596370    30.031804748    -3.357110855
 C       -2.336292470    29.987120016    -7.127960357
 C       -1.843880365    31.177549150    -7.510497289
 C       -1.590057482    31.565451979    -8.894106426
 C       -1.841530773    30.714941020    -9.973664442
 C       -1.584073176    31.126623840   -11.281293995
 C       -1.073396283    32.402816055   -11.537808581
 C       -0.820718234    33.258244710   -10.456597093
 C       -1.074292090    32.842719190    -9.152486780
Si       -0.728045507    32.961827875   -13.257344539
 C       -1.476601506    31.808105294   -14.517669567
 C       -1.438272484    34.715382961   -13.467372942
 C        1.153459048    33.032540405   -13.537196313
 C       -5.271778802    28.552836569    -0.983539121
 C       -2.346051953    29.105401082    -0.147857367
 C       -5.053355686    12.704389648    -1.261697066
 C       -5.037092453    12.704579887     1.830276690
 C       -0.652797089    -0.908765665    -1.540162002
 C       -0.621268559    -0.917659480     1.547336497
 H        1.167020397     2.677332590     0.671601736
 H        0.245373561     4.923704564     0.660868731
 H       -3.559028781     3.402697361    -0.656874334
 H       -2.677625701     1.136197578    -0.663480017
 H       -3.358346055     5.702976310    -0.324866012
 H       -0.606173486     6.758605475     0.621894651
 H       -4.210186626     7.536360620    -0.362515046
 H       -5.133182117     9.782601091    -0.372566703
 H       -1.283202162    11.330074873     0.946176048
 H       -0.406498187     9.058557304     0.956705870
 H       -1.875409451    13.463703141    -0.591101978
 H       -3.153452085    14.961394648     1.833008523
 H       -2.058525386    16.840979967     2.605564641
 H       -0.199847041    18.465419643     2.536856498
 H        1.472445751    16.379505035    -0.851901133
 H       -0.320846704    14.716164047    -0.713562172
 H        3.781293431    18.946965978     0.330874764
 H        2.893742548    18.125341339    -0.988034623
 H        3.386583998    17.220564704     0.477628397
 H       -1.720023874    18.258224299    -0.512651586
 H       -3.064611163    19.410927717    -0.615731352
 H       -1.771243525    19.644289675     0.611051804
 H       -0.099969280    21.810693974    -3.129058546
 H       -0.525686147    24.220174805    -3.293264994
 H       -3.515406244    23.914180225    -0.213365835
 H       -3.068273975    21.524895785     0.004359495
 H       -1.635226899    26.144302610    -2.676576559
 H       -3.799952957    25.900140200    -0.438756296
 H       -3.766375696    26.894335099    -4.045964903
 H       -3.305239080    27.641407024    -6.316379505
 H       -1.942530520    31.445854494    -4.835105096
 H       -2.377590236    30.741071886    -2.553582881
 H       -2.579859299    29.221351102    -7.870412178
 H       -1.600455005    31.943517878    -6.768494635
 H       -2.242380176    29.717689154    -9.801578999
 H       -1.800681863    30.416659680   -12.084238016
 H       -0.422626127    34.267258823   -10.596535423
 H       -0.870529216    33.520713076    -8.325846360
 H        0.346464789    20.076426780     1.109363751
 H        2.053463501    20.583474089     1.133710277
 H        1.031686267    21.471525521    -0.878977796
 H        2.192778525    20.245544031    -1.372561684
 H        0.331556334    19.795507088    -2.769935016
 H        0.181431219    18.558171059    -1.505488329
 H        2.263541803    -1.029147916    -0.050602219
 H        2.275917425     0.470681858     0.910334936
 H        2.260047085     0.551941856    -0.872481298
 H       -1.299450289    32.172054303   -15.545501535
 H       -2.569984259    31.725718446   -14.379147977
 H       -1.050076378    30.792201775   -14.446700200
 H       -0.908271206    35.356985474   -12.704532095
 C       -1.175945743    35.321969644   -14.857283828
 C       -2.947128997    34.779201063   -13.168690241
 H        1.289175129    33.322174812   -14.619315200
 C        1.868975133    34.083598355   -12.669781097
 C        1.833329880    31.668273168   -13.319247422
 H       -5.434485767    28.196208386     0.074231180
 C       -5.609715167    30.052760381    -1.040455257
 C       -6.241750550    27.786285100    -1.900596370
 H       -2.591513842    30.200351416    -0.263787109
 C       -2.617732154    28.711025077     1.314978989
 C       -0.847832973    28.915329378    -0.445624278
 H       -5.901236134    11.965887137    -1.166511625
 C       -5.658204087    14.116527034    -1.348869919
 C       -4.301812195    12.397915996    -2.569305890
 H       -5.340051896    13.791668696     1.826917066
 C       -6.319939923    11.854248160     1.829221391
 C       -4.260810704    12.425401505     3.130284227
 H       -1.777471726    -0.915506583    -1.442806140
 C       -0.298034901    -0.180107177    -2.849046316
 C       -0.180691994    -2.370510519    -1.636430712
 H       -0.139939376    -1.937512057     1.512739304
 C       -0.189642495    -0.229816597     2.855482704
 C       -2.148081371    -1.111422555     1.572323443
 H       -0.110080307    35.377746401   -15.113441626
 H       -1.554911938    36.353772744   -14.893647009
 H       -1.686057429    34.779830670   -15.664447499
 H       -3.206842234    34.410897709   -12.165807533
 H       -3.552413260    34.218972561   -13.893519096
 H       -3.296680423    35.820525844   -13.213009918
 H        1.494004996    35.103533580   -12.821898777
 H        2.939541049    34.110513313   -12.920375153
 H        1.812631519    33.859240892   -11.595286391
 H        1.436371749    30.874500261   -13.964958536
 H        1.763102639    31.317442237   -12.279527471
 H        2.906400313    31.741449535   -13.547200187
 H       -5.021426528    30.659155276    -0.340111294
 H       -6.664378292    30.211127231    -0.772406505
 H       -5.482005918    30.482452858    -2.044461634
 H       -6.100366912    26.697114145    -1.872127643
 H       -6.174932565    28.102061812    -2.951785430
 H       -7.279887137    27.970913967    -1.590327539
 H       -3.653095539    28.892344202     1.630256437
 H       -1.983815145    29.306061482     1.988120613
 H       -2.382569562    27.657927530     1.523841233
 H       -0.559958759    29.230712085    -1.458139868
 H       -0.516713270    27.874309969    -0.318550325
 H       -0.245031802    29.517884025     0.248071638
 H       -6.285730161    14.375734341    -0.486531563
 H       -6.306043530    14.194043384    -2.233954770
 H       -4.897243169    14.903048851    -1.455849864
 H       -3.873826412    11.385829007    -2.598965045
 H       -3.489443039    13.108624882    -2.773679524
 H       -4.990609548    12.463986831    -3.423700136
 H       -6.982393621    12.065047714     0.980132013
 H       -6.908551110    12.062048214     2.734825398
 H       -6.117675096    10.773830619     1.839323523
 H       -3.345286164    13.023392266     3.234413789
 H       -3.975215898    11.368573914     3.236429932
 H       -4.886452233    12.663524087     4.002033841
 H       -0.654193449     0.859661736    -2.877245881
 H       -0.767384537    -0.688652486    -3.703167121
 H        0.780803859    -0.165311398    -3.053287608
 H       -0.461422695    -2.976702022    -0.765491310
 H        0.905145123    -2.461981154    -1.771861038
 H       -0.640562151    -2.856220866    -2.509427582
 H        0.898253755    -0.124247350     2.955041741
 H       -0.520692905    -0.823434667     3.719760661
 H       -0.634171617     0.768155382     2.979836476
 H       -2.529441082    -1.679300831     0.714326788
 H       -2.698416841    -0.161019346     1.619517906
 H       -2.439948735    -1.678329058     2.468438425

