187   

Si        0.000000000     0.000000000     0.000000000
 C        1.865294319     0.000000000     0.000000000
 C       -0.680434136     1.710293344     0.000000000
 C        0.144673563     2.818566534    -0.214264660
 C       -0.385263835     4.109190031    -0.211477691
 C       -1.749938950     4.320232098    -0.000857835
 C       -2.576093219     3.207816394     0.212273336
 C       -2.049547928     1.919598648     0.214327726
 C       -2.350100131     5.650070864     0.010913875
 C       -1.676013182     6.797742333    -0.174951331
 C       -2.281896473     8.125132943    -0.162078630
 C       -1.463532400     9.243056528    -0.369725099
 C       -1.999199661    10.528631513    -0.365665899
 C       -3.367233133    10.727116957    -0.143041907
 C       -4.186668946     9.611659519     0.063128507
 C       -3.649235374     8.325862534     0.046926766
Si       -4.088128665    12.418521775    -0.134915554
 C       -5.568482431    12.547739705     0.928956864
 C       -5.776580885    11.809003436     2.027079933
 C       -6.965081643    11.918579322     2.873898429
 C       -7.067910485    11.086919322     4.001307423
 C       -8.170038814    11.149726914     4.835216348
 C       -9.191031029    12.095381531     4.597258104
 C       -9.089794889    12.929071630     3.470949621
 C       -8.000599785    12.817278665     2.612621824
 N      -10.297197053    12.125941792     5.471200982
 C      -10.001209220    12.169997488     6.913816857
 C      -11.446783992    12.945550524     5.066220651
 C       -9.907000204    13.581234925     7.528306266
 C       -8.652167622    14.347284138     7.077275914
 N       -7.398628184    13.717162628     7.558546433
 C       -6.232529643    14.208049870     6.907224723
 C       -6.158824499    14.113717265     5.503963035
 C       -5.044921025    14.577296922     4.823824660
 C       -3.948721393    15.112141309     5.517733396
 C       -4.015155318    15.182402403     6.910928292
 C       -5.135413570    14.736126251     7.603935825
 C       -7.314879223    13.649823694     9.028114653
 C       -2.787980377    15.592626729     4.764148141
 C       -1.698710798    16.117536818     5.340060875
Si       -0.205701136    16.742684336     4.494203219
 C        0.218555864    18.420963346     5.111028342
 C       -0.754387682    19.215671465     5.729370566
 C       -0.431557669    20.487443876     6.196419515
 C        0.863777982    20.999410729     6.046037827
 C        1.830901698    20.205601022     5.422412740
 C        1.513140458    18.929751295     4.959172277
 C        1.151691581    22.337304437     6.552382019
 C        2.348683832    22.944117907     6.479161745
 C        2.632932638    24.282381926     6.986709581
 C        1.663797997    25.073376925     7.609668504
 C        1.978361915    26.347795372     8.080540865
 C        3.274031972    26.856700428     7.944999291
 C        4.247977500    26.064819718     7.322462459
 C        3.929821715    24.795143568     6.848264158
Si        3.706110750    28.536968819     8.561030126
 C        2.366324408    29.232176721     9.657375873
 C        5.345389396    28.414855667     9.520415379
 C        3.954384219    29.709901890     7.082230799
 C        1.206713397    15.520975942     4.857752139
 C       -0.465930040    16.839713285     2.613423203
 C       -2.799337516    13.655753109     0.522369364
 C       -4.568777276    12.910051377    -1.905883641
 C       -0.603414922    -0.928208305    -1.548829177
 C       -0.662918887    -0.896338650     1.543012914
 H        1.219803361     2.715953905    -0.385299904
 H        0.279949001     4.954273394    -0.377854835
 H       -3.641948298     3.350844893     0.379979916
 H       -2.742491352     1.092150921     0.391489544
 H       -3.429762775     5.661691673     0.188511802
 H       -0.596952160     6.787144711    -0.352349896
 H       -0.396833362     9.109073867    -0.537221660
 H       -1.312476442    11.361699200    -0.539619206
 H       -5.263894162     9.707717451     0.237077840
 H       -4.307983685     7.473587283     0.204322709
 H       -6.297503225    13.305100799     0.603915983
 H       -5.059217319    11.055009350     2.382285514
 H       -6.272200794    10.373098468     4.220103889
 H       -8.244543807    10.476028261     5.685977190
 H       -9.856051076    13.665688175     3.255154637
 H       -7.953706776    13.462657876     1.735063243
 H      -12.284959408    12.765157842     5.760972943
 H      -11.783885648    12.623842525     4.063685264
 H      -11.241640959    14.027832200     5.037873660
 H       -8.160356198    13.053688153     9.411194539
 H       -7.323868307    14.631682471     9.525443834
 H       -6.396859984    13.106792285     9.317255751
 H       -6.982404628    13.663469113     4.948092673
 H       -5.015758835    14.500408317     3.735295698
 H       -3.179311743    15.596233522     7.476768067
 H       -5.150663760    14.825458850     8.685184337
 H       -2.899817642    15.487445382     3.676713354
 H       -1.625030906    16.198690148     6.438678998
 H       -1.783606954    18.868473292     5.868214211
 H       -1.198299081    21.089587892     6.680320336
 H        2.844326267    20.580025314     5.293248718
 H        2.310709283    18.353995661     4.481423426
 H        0.299548945    22.842907740     7.016364827
 H        3.201309744    22.440105364     6.015298493
 H        0.648935396    24.699235270     7.731229431
 H        1.177827945    26.919975881     8.557386683
 H        5.277501308    26.409344376     7.189942325
 H        4.700146646    24.195315679     6.367549504
 H      -10.810540618    11.597214957     7.423849872
 H       -9.047713055    11.627268064     7.119147361
 H      -10.800252390    14.178258489     7.265505368
 H       -9.932883454    13.491741683     8.630722607
 H       -8.628635999    14.370174485     5.961836481
 H       -8.723958509    15.405051922     7.417202966
 H        2.262762639    -1.029966348     0.039000401
 H        2.262489711     0.541820413     0.877564553
 H        2.273596953     0.480099974    -0.906631339
 H        2.653474410    30.220963122    10.057647346
 H        2.175731178    28.567798109    10.519646066
 H        1.414838372    29.357971112     9.111780843
 H        6.108170974    28.032732428     8.781137272
 C        5.847121290    29.768219365    10.055385740
 C        5.273341335    27.410714757    10.684925198
 H        4.156255236    30.725570793     7.530323983
 C        5.152195274    29.335867599     6.190984632
 C        2.697923313    29.817298210     6.198886009
 H        2.078188745    15.844427049     4.219204111
 C        1.657439365    15.559276326     6.328949131
 C        0.843043416    14.073738599     4.481609505
 H       -0.867090435    15.830192486     2.302268042
 C       -1.501197810    17.912932285     2.229809476
 C        0.827783945    17.094606284     1.820763992
 H       -1.958151791    13.664481189    -0.228389997
 C       -3.352913103    15.086247898     0.637652317
 C       -2.227474552    13.222453818     1.882611048
 H       -4.971264567    13.961780384    -1.841468618
 C       -3.375785441    12.914950877    -2.878125541
 C       -5.676251732    12.007577746    -2.478512070
 H       -0.092475818    -1.933915395    -1.517637926
 C       -2.123268684    -1.167461253    -1.578544925
 C       -0.190064539    -0.223871804    -2.854273396
 H       -1.787621192    -0.890185457     1.444655203
 C       -0.207669481    -2.362857893     1.645538923
 C       -0.302208692    -0.165859592     2.849174810
 H        5.993917303    30.518989077     9.268178028
 H        6.824289064    29.639821098    10.543263948
 H        5.181643815    30.203145633    10.812805706
 H        4.975420684    26.400568284    10.369408825
 H        4.584866082    27.724988155    11.480558031
 H        6.261774416    27.306186392    11.154635436
 H        6.107735307    29.315665754     6.729946971
 H        5.268760735    30.079233346     5.388661619
 H        5.024951431    28.365249107     5.691138964
 H        1.809645584    30.163787848     6.742531135
 H        2.438375731    28.867935155     5.708430323
 H        2.866085211    30.544183430     5.391304038
 H        1.970657624    16.558330775     6.663427091
 H        2.526017918    14.901282010     6.474038801
 H        0.883915829    15.205038185     7.024101589
 H        0.612585378    13.945168350     3.416023778
 H       -0.011138213    13.685976135     5.058204053
 H        1.687621916    13.403790708     4.695587021
 H       -2.484267620    17.759668990     2.696548266
 H       -1.666554852    17.910318160     1.143134982
 H       -1.173329160    18.931752193     2.483778463
 H        1.586181675    16.314290021     1.962627927
 H        1.291813590    18.062453915     2.056989208
 H        0.609645082    17.116036970     0.743105108
 H       -3.722238707    15.490113704    -0.313150226
 H       -2.558017927    15.771265275     0.969460343
 H       -4.164060441    15.173333312     1.374470598
 H       -1.794635246    12.212183091     1.877162942
 H       -2.976607556    13.250846417     2.687844912
 H       -1.415260259    13.897626675     2.187164761
 H       -2.579471434    13.611909046    -2.587866560
 H       -3.707940246    13.228602844    -3.878463693
 H       -2.922546252    11.921286180    -3.004946472
 H       -6.589732929    11.996834181    -1.868288805
 H       -5.352937253    10.964728688    -2.609635368
 H       -5.975708873    12.362851496    -3.474735147
 H       -2.493793510    -1.731465757    -0.713384549
 H       -2.391710990    -1.758421372    -2.466621773
 H       -2.700781323    -0.234941441    -1.647454750
 H        0.894510980    -0.086366570    -2.951986328
 H       -0.662159212     0.761734274    -2.975808920
 H       -0.502542128    -0.823385041    -3.721299684
 H       -0.492089455    -2.968540302     0.775535877
 H       -0.676047866    -2.840509353     2.518500223
 H        0.876588519    -2.466185738     1.784837693
 H       -0.647951004     0.877553955     2.872515625
 H        0.776292162    -0.161534308     3.055096148
 H       -0.778710011    -0.665802785     3.704474231

