187   

Si        0.000000000     0.000000000     0.000000000
 C        1.866112503     0.000000000     0.000000000
 C       -0.671180710     1.714573362     0.000000000
 C        0.180568399     2.812770538    -0.157229749
 C       -0.328208608     4.110807274    -0.157149735
 C       -1.697970237     4.344262997    -0.006162992
 C       -2.550843376     3.243141205     0.147887286
 C       -2.045014487     1.945405132     0.150486153
 C       -2.265118603     5.689140206    -0.001354375
 C       -1.541302796     6.813105470    -0.138805810
 C       -2.082259941     8.167665447    -0.137538238
 C       -1.196601604     9.242387370    -0.291827964
 C       -1.661268788    10.555646196    -0.297661419
 C       -3.023801779    10.823283257    -0.130601100
 C       -3.911789134     9.750893933     0.023370904
 C       -3.445744794     8.437376045     0.010426550
Si       -3.692669314    12.539064890    -0.130024425
 C       -5.002390342    12.596863279     1.141828384
 C       -6.260541225    13.050497830     1.070224112
 C       -7.182097875    13.015634865     2.210520939
 C       -8.488460249    13.504623771     2.077787770
 C       -9.378326923    13.482090630     3.142710618
 C       -8.998730331    12.936926408     4.386601526
 C       -7.682099482    12.447444255     4.521841704
 C       -6.797710191    12.506562728     3.455900907
 N       -9.870839399    12.898112771     5.481484219
 C      -11.305591719    13.138672133     5.297698199
 C       -9.568402769    11.939719262     6.556141742
 C      -12.075572320    11.911120939     4.781381094
 C      -13.594099082    12.158928889     4.729204303
 N      -14.038135863    13.253134749     3.835215560
 C      -13.312209755    13.343319596     2.622862562
 C      -13.216424830    12.178773268     1.832238847
 C      -12.519863540    12.206803292     0.637563783
 C      -11.931661329    13.394312043     0.174113909
 C      -12.052267044    14.550369931     0.945976651
 C      -12.741428994    14.535917896     2.154849455
 C      -14.293660828    14.517949609     4.543333613
 C      -11.208743092    13.358458496    -1.096199079
 C      -10.602308113    14.415404013    -1.652446136
Si       -9.710108886    14.319465750    -3.244441590
 C       -9.003719114    12.637259227    -3.485112568
 C       -8.626437073    11.875182392    -2.373530816
 C       -8.089663219    10.598936257    -2.537912327
 C       -7.892345079    10.068648631    -3.815413643
 C       -8.266751425    10.835174004    -4.927125168
 C       -8.824701908    12.100726692    -4.765587036
 C       -7.334515066     8.739826983    -4.036246509
 C       -6.935405258     7.901506870    -3.064450328
 C       -6.378931740     6.573996922    -3.304039892
 C       -6.212891266     6.056845937    -4.592150065
 C       -5.678223059     4.784923275    -4.786479935
 C       -5.281584351     4.004944165    -3.693735808
 C       -5.433243757     4.527056709    -2.403648315
 C       -5.968829637     5.798790335    -2.212170909
Si       -4.580224112     2.330125500    -3.996681744
 C       -5.487258608     1.478928854    -5.387996303
 C       -2.740502583     2.521233134    -4.449821393
 C       -4.685473393     1.266966226    -2.421941183
 C      -10.875474347    14.774070530    -4.671953805
 C       -8.269908634    15.562824817    -3.189630609
 C       -2.341114223    13.775250352     0.397215492
 C       -4.264844966    13.026644533    -1.870353509
 C       -0.657465505    -0.872794117    -1.556673906
 C       -0.590150883    -0.957861943     1.535573752
 H        1.260865511     2.697184420    -0.280504941
 H        0.358593827     4.946601510    -0.278349746
 H       -3.620720007     3.401631936     0.271082105
 H       -2.758235400     1.124439549     0.271437765
 H       -3.350980743     5.733051053     0.117538131
 H       -0.455161329     6.760148882    -0.264189874
 H       -0.132169696     9.052804695    -0.413582483
 H       -0.925706497    11.352446202    -0.433662898
 H       -4.988739548     9.904753864     0.152986866
 H       -4.154665377     7.618833543     0.118002626
 H       -4.618968421    12.184379113     2.095443807
 H       -6.696607759    13.471058155     0.157005955
 H       -8.823083213    13.906953528     1.118871814
 H      -10.384445881    13.867771500     2.993162234
 H       -7.339327687    12.032053657     5.463250224
 H       -5.782639962    12.130478451     3.599949956
 H      -10.386237320    11.909961917     7.293981419
 H       -8.661991658    12.274673916     7.094685795
 H       -9.401788386    10.915195618     6.183004014
 H      -15.007741097    14.331268406     5.364269152
 H      -14.785582042    15.226891157     3.852541841
 H      -13.396152141    14.997437191     4.963215489
 H      -13.694368220    11.260717659     2.164730210
 H      -12.436022360    11.294873740     0.044619192
 H      -11.603595486    15.484164188     0.604603214
 H      -12.813608246    15.452805574     2.731075992
 H      -11.208319126    12.360361344    -1.560189716
 H      -10.625112230    15.408578529    -1.181849961
 H       -8.737159311    12.245755241    -1.347300379
 H       -7.822259285    10.016867245    -1.656290550
 H       -8.124921891    10.437887841    -5.930172308
 H       -9.106527986    12.647462722    -5.669074656
 H       -7.253961454     8.449428489    -5.087911912
 H       -7.009113348     8.188190673    -2.011595476
 H       -6.507110699     6.644600712    -5.459666036
 H       -5.580755363     4.433557506    -5.817617688
 H       -5.125004005     3.968930670    -1.515387233
 H       -6.071879937     6.190373772    -1.202160607
 H      -11.720948598    13.470520258     6.277691351
 H      -11.441328143    13.999962079     4.602272357
 H      -11.690692033    11.631423004     3.778963129
 H      -11.873613811    11.033744627     5.423268124
 H      -14.102754996    11.231370137     4.370658606
 H      -13.984037702    12.343408959     5.753214388
 H        2.263808018    -1.030433933     0.011341060
 H        2.271709430     0.522618877     0.884308371
 H        2.267513367     0.497690234    -0.900892107
 H       -5.074132615     0.472646116    -5.577377701
 H       -5.423523392     2.048550672    -6.330988988
 H       -6.558176720     1.359414068    -5.143173985
 H       -2.321636839     1.474534982    -4.490396819
 C       -2.529148811     3.172624461    -5.828987661
 C       -1.944157059     3.319260122    -3.404786478
 H       -4.021318806     1.776764057    -1.663037522
 C       -6.107004077     1.184163619    -1.836448325
 C       -4.159459077    -0.165590984    -2.624590561
 H      -10.244174045    14.764484682    -5.607332476
 C      -12.009540426    13.748584466    -4.850335898
 C      -11.490623678    16.177928718    -4.530747086
 H       -8.740042933    16.585501540    -3.125110276
 C       -7.378224941    15.364466959    -1.950785515
 C       -7.389329832    15.517426216    -4.450333121
 H       -1.518555896    13.682034191    -0.368832474
 C       -2.833617777    15.233707309     0.392941815
 C       -1.744153322    13.455356823     1.779281752
 H       -4.811822926    14.007867892    -1.751853743
 C       -3.110238785    13.245928497    -2.864584797
 C       -5.236263405    11.998919090    -2.466210747
 H       -1.782993673    -0.847302496    -1.461530471
 C       -0.274509899    -0.141064438    -2.855263840
 C       -0.224354961    -2.345221957    -1.665647221
 H        0.016148321    -1.910303375     1.541101966
 C       -0.297969218    -0.199859340     2.843689547
 C       -2.078172773    -1.351413580     1.516246506
 H       -2.995971354     2.616376115    -6.650962225
 H       -1.455052501     3.219207210    -6.060211407
 H       -2.895134685     4.208389157    -5.871204178
 H       -1.960797021     2.870512741    -2.400470887
 H       -2.288362239     4.358862101    -3.301391280
 H       -0.885602020     3.376718891    -3.694637168
 H       -6.557940892     2.164275624    -1.631030691
 H       -6.089644742     0.644378520    -0.879199605
 H       -6.803652027     0.637730867    -2.485969774
 H       -3.129313165    -0.200997356    -3.005985288
 H       -4.784320276    -0.758490234    -3.304953130
 H       -4.155123119    -0.702809757    -1.665133592
 H      -11.650100893    12.723162766    -5.014709684
 H      -12.617037628    14.006021788    -5.729435107
 H      -12.700585515    13.722540808    -3.995346384
 H      -10.742720545    16.978964762    -4.474237418
 H      -12.148493157    16.270088443    -3.655214849
 H      -12.114788926    16.403920761    -5.407587838
 H       -7.920737589    15.471608580    -1.001458609
 H       -6.579132243    16.119052050    -1.934825510
 H       -6.876389864    14.383934655    -1.944081492
 H       -7.938781364    15.730039634    -5.375869648
 H       -6.877989194    14.552258511    -4.580175172
 H       -6.596821023    16.276891613    -4.384099499
 H       -3.186810543    15.570438001    -0.590244496
 H       -2.012962453    15.909169366     0.672831237
 H       -3.640852116    15.414323521     1.117362941
 H       -1.352239637    12.432267125     1.861303124
 H       -2.463084880    13.601360724     2.597415347
 H       -0.899034811    14.126083147     1.989067057
 H       -2.426029266    14.050660188    -2.569145090
 H       -3.513947831    13.530018326    -3.847526406
 H       -2.511769539    12.339511882    -3.032507831
 H       -6.080670225    11.766481477    -1.802358589
 H       -4.750298635    11.047659063    -2.727658348
 H       -5.678491192    12.380648823    -3.398331775
 H       -0.608825145     0.907716103    -2.876748358
 H       -0.745009106    -0.631988703    -3.719137357
 H        0.805818405    -0.146908826    -3.049642341
 H       -0.524873255    -2.953759275    -0.803113045
 H        0.859474630    -2.464240972    -1.795137304
 H       -0.691028374    -2.809610595    -2.546596830
 H        0.764255351     0.041621235     2.980775842
 H       -0.587153275    -0.813440124     3.708730506
 H       -0.863463296     0.739303446     2.928655696
 H       -2.367970659    -1.923958664     0.626168118
 H       -2.750276527    -0.486552169     1.596465282
 H       -2.305258134    -1.993557858     2.380003765

