187   

Si        0.000000000     0.000000000     0.000000000
 C        1.865332429     0.000000000     0.000000000
 C       -0.674884584     1.711248643     0.000000000
 C        0.096808024     2.777733595    -0.472760246
 C       -0.414106875     4.074142911    -0.472904887
 C       -1.703209186     4.337183424    -0.000175026
 C       -2.475827305     3.267360721     0.468797028
 C       -1.971142014     1.969272400     0.464470787
 C       -2.269778019     5.681942570     0.014270928
 C       -1.611427085     6.769751175    -0.419374465
 C       -2.130031644     8.131240591    -0.426688278
 C       -3.408381704     8.459514844     0.031493510
 C       -3.854342607     9.780421647     0.001591874
 C       -3.034776780    10.792261364    -0.509438903
 C       -1.757824199    10.463731711    -0.981096935
 C       -1.312696404     9.146223291    -0.940553736
Si       -3.607180693    12.538735755    -0.556219675
 C       -2.181904630    13.605993053    -0.973677704
 C       -2.155288876    14.547139600    -1.925400629
 C       -0.985114700    15.377358414    -2.220989530
 C       -1.080318283    16.332557658    -3.244899222
 C       -0.003757561    17.143132076    -3.564766992
 C        1.215990057    17.000136364    -2.875462719
 C        1.317446086    16.048883645    -1.851389312
 C        0.219991004    15.258110069    -1.525352017
 N        2.279498521    17.863578816    -3.253577014
 C        2.727265436    17.691926068    -4.650462165
 C        3.376112681    17.998403318    -2.281939104
 C        2.970258181    16.241392321    -5.104360170
 C        4.181460166    15.615987722    -4.391673639
 N        4.663514305    14.369578799    -4.995522849
 C        3.958293825    13.176180460    -4.784991824
 C        2.882224204    13.085297203    -3.879103947
 C        2.212954063    11.882203119    -3.703140221
 C        2.614997753    10.721257093    -4.377530792
 C        3.700154978    10.808704494    -5.255580777
 C        4.366937538    12.006598388    -5.460413280
 C        5.283584091    14.551443888    -6.318394118
 C        1.882803177     9.471162091    -4.165063200
 C        2.193437834     8.313319220    -4.764875368
Si        1.314403973     6.727202436    -4.535556235
 C       -0.469739662     6.937464590    -4.148748843
 C       -1.139617694     8.116563458    -4.491996429
 C       -2.492753877     8.271814062    -4.196760229
 C       -3.215074470     7.237731342    -3.595067922
 C       -2.547796717     6.049289511    -3.273346447
 C       -1.190740351     5.898648990    -3.546803327
 C       -4.631654861     7.358990812    -3.269580352
 C       -5.374429883     8.447662993    -3.529347970
 C       -6.789904528     8.588736646    -3.212474176
 C       -7.530370430     7.579837241    -2.592086153
 C       -8.884071116     7.762524704    -2.309100144
 C       -9.525259727     8.959398008    -2.642388181
 C       -8.786138746     9.970095583    -3.272296918
 C       -7.437898607     9.781930149    -3.559346883
Si      -11.309053063     9.224657950    -2.279817110
 C      -11.980717329     7.912307207    -1.137183476
 C      -11.485689500    10.946867982    -1.485301895
 C      -12.307453950     9.199066108    -3.899514155
 C        1.474490014     5.697591910    -6.125152099
 C        2.145770408     5.790471678    -3.098162450
 C       -5.010524559    12.738668950    -1.820856767
 C       -4.261898014    13.016620069     1.164007882
 C       -0.618898591    -0.883100078    -1.569413269
 C       -0.656838921    -0.932252634     1.522859648
 H        1.113560849     2.636684611    -0.850189267
 H        0.210363437     4.887402181    -0.843229072
 H       -3.482423795     3.448589546     0.839874159
 H       -2.621101992     1.174318992     0.839265843
 H       -3.284236211     5.758223461     0.410299239
 H       -0.594302298     6.675086037    -0.820430252
 H       -4.066447173     7.683679235     0.417222813
 H       -4.861608494     9.981394052     0.376593212
 H       -1.080798338    11.212991295    -1.403750716
 H       -0.320910550     8.902912939    -1.320283714
 H       -1.300063651    13.420293375    -0.336400927
 H       -3.016613613    14.767634781    -2.568807350
 H       -2.015252300    16.445291549    -3.793477475
 H       -0.095403426    17.895113858    -4.344800000
 H        2.247574776    15.917078211    -1.306740397
 H        0.316441622    14.526470796    -0.721690250
 H        4.013040918    18.848793669    -2.581667470
 H        4.012999477    17.108063801    -2.171899500
 H        2.951744049    18.249638889    -1.292768260
 H        5.649042778    15.583463926    -6.441203180
 H        4.594261876    14.327437645    -7.149468092
 H        6.163297838    13.886146973    -6.398786637
 H        2.541279818    13.960616225    -3.331675328
 H        1.361340853    11.844972863    -3.020904701
 H        4.036206599     9.921062290    -5.793859416
 H        5.209878224    12.031989569    -6.143003012
 H        1.045311808     9.573047887    -3.460764834
 H        3.048851520     8.247387853    -5.455565821
 H       -0.633818720     8.951107586    -4.988689139
 H       -2.984767916     9.210645054    -4.444687133
 H       -3.090543597     5.233067596    -2.798315867
 H       -0.726185251     4.948211937    -3.267320556
 H       -5.069434989     6.483749274    -2.781718211
 H       -4.926561069     9.319408761    -4.016878722
 H       -7.052619355     6.640066926    -2.320906835
 H       -9.412192490     6.939707614    -1.820551141
 H       -9.235778152    10.924669055    -3.559038052
 H       -6.879868995    10.574358793    -4.056565262
 H        1.938109991    18.146316055    -5.297273041
 H        3.641088040    18.304575026    -4.809265372
 H        2.065779524    15.625448398    -4.926780595
 H        3.120818348    16.222890155    -6.199914217
 H        5.034587305    16.334277546    -4.382328810
 H        3.938880650    15.417096985    -3.321269558
 H        2.261618682    -1.029472629     0.058655691
 H        2.260242264     0.557870888     0.868788246
 H        2.277026900     0.463627536    -0.913272905
 H      -13.042032998     8.099961961    -0.895097606
 H      -11.421519995     7.892361209    -0.184314689
 H      -11.915399373     6.906310705    -1.587581237
 H      -11.161740267    11.685678076    -2.274963153
 C      -12.930336043    11.291330852    -1.082667423
 C      -10.565483473    11.130591243    -0.264458288
 H      -13.385250940     9.336512729    -3.594666611
 C      -11.940487507    10.334856683    -4.871495442
 C      -12.188424139     7.856709469    -4.644207480
 H        2.580193775     5.597354060    -6.323638458
 C        0.881351335     4.283851621    -5.991831247
 C        0.834153100     6.397370840    -7.337342157
 H        1.505085374     4.881539552    -2.905667370
 C        3.568307480     5.303625916    -3.424988247
 C        2.193712234     6.630881403    -1.809342398
 H       -5.220178609    13.846299071    -1.873752786
 C       -4.602232173    12.258847830    -3.225897084
 C       -6.311982249    12.029354293    -1.409626029
 H       -5.126777512    12.320133263     1.368361390
 C       -3.215030022    12.808507520     2.272769554
 C       -4.785957874    14.461530510     1.231579766
 H       -0.134422939    -1.901425044    -1.563072709
 C       -2.145274017    -1.079473767    -1.595098781
 C       -0.192960126    -0.156883321    -2.859025322
 H       -1.781415156    -0.935125040     1.423664424
 C       -0.188920568    -2.396912001     1.594638330
 C       -0.301461506    -0.227200524     2.844485723
 H      -13.637592063    11.247755743    -1.920914401
 H      -12.977128833    12.319299606    -0.694697940
 H      -13.317988032    10.644630341    -0.284369473
 H       -9.503691316    10.956523062    -0.492048010
 H      -10.834336920    10.478407570     0.576866740
 H      -10.636123124    12.162113298     0.108845946
 H      -12.075290221    11.336134217    -4.443693735
 H      -12.588052598    10.292016227    -5.759504384
 H      -10.908518169    10.261209608    -5.242868925
 H      -12.510006633     6.994878282    -4.045479868
 H      -11.166986030     7.653898414    -4.997383008
 H      -12.827190320     7.864344563    -5.539032132
 H        1.343525929     3.689808283    -5.192796678
 H        1.037794247     3.721442444    -6.923314838
 H       -0.205017006     4.291797252    -5.819082226
 H        1.245235074     7.397403809    -7.531805730
 H       -0.256692455     6.501217650    -7.242618623
 H        1.008527506     5.809104677    -8.249065911
 H        3.609594441     4.625017437    -4.286289155
 H        3.979406218     4.743245956    -2.572823245
 H        4.269916084     6.126980829    -3.615731001
 H        1.213067613     7.014965976    -1.496209047
 H        2.868723864     7.495651339    -1.893054949
 H        2.573900879     6.024395208    -0.975251420
 H       -3.697928037    12.748251805    -3.613020647
 H       -5.402802741    12.475532603    -3.946315433
 H       -4.426614477    11.173265630    -3.264906223
 H       -6.699554075    12.349430722    -0.434790002
 H       -6.213467231    10.932704834    -1.388751245
 H       -7.106941372    12.245418960    -2.138763978
 H       -2.823610632    11.781962342     2.314110677
 H       -3.664974657    13.003573132     3.256648565
 H       -2.357235368    13.488834045     2.186119821
 H       -5.598074573    14.663750633     0.521381836
 H       -3.999895890    15.210556797     1.060699099
 H       -5.193983519    14.667585129     2.231464988
 H       -2.521854549    -1.675822829    -0.754336065
 H       -2.439593760    -1.617365303    -2.508073935
 H       -2.697934750    -0.129243695    -1.608140226
 H        0.894465156    -0.046919348    -2.958553856
 H       -0.641573549     0.842985294    -2.953549164
 H       -0.524839363    -0.727322643    -3.738342980
 H       -0.464688230    -2.985583660     0.710200824
 H       -0.656233950    -2.898035020     2.454866963
 H        0.895736282    -2.493526569     1.735740110
 H       -0.651270569     0.814126973     2.889145196
 H        0.777031383    -0.222038952     3.051247763
 H       -0.775809384    -0.747311040     3.688873396

