187   

Si        0.000000000     0.000000000     0.000000000
 C        1.865599567     0.000000000     0.000000000
 C       -0.673600974     1.713100842     0.000000000
 C        0.144336301     2.809204842     0.291842389
 C       -0.375940499     4.103232989     0.289165053
 C       -1.724338355     4.331032491     0.001964791
 C       -2.543405070     3.231146787    -0.286577261
 C       -2.026584493     1.938498465    -0.287550360
 C       -2.311067770     5.667017302    -0.012111361
 C       -1.635958760     6.800591857     0.243541366
 C       -2.219391748     8.137873866     0.230333565
 C       -1.394162933     9.233986670     0.516875982
 C       -1.904964949    10.528783006     0.516429101
 C       -3.259528358    10.756342821     0.239980985
 C       -4.085310807     9.664747743    -0.045367813
 C       -3.567614362     8.369731226    -0.054415593
Si       -3.929743984    12.471157143     0.240762491
 C       -5.750827267    12.430884083     0.371727883
 C       -6.644569448    13.070417263    -0.395116727
 C       -8.093285190    12.964644175    -0.197979507
 C       -8.968471201    13.663076826    -1.039890666
 C      -10.344901038    13.581203653    -0.876065283
 C      -10.896609515    12.823364784     0.175341808
 C      -10.015879563    12.121636292     1.026037111
 C       -8.646318013    12.183561114     0.823183734
 N      -12.277326114    12.708344800     0.384397214
 C      -13.223037849    13.435747523    -0.464608312
 C      -12.733502552    12.522194218     1.770187143
 C      -13.509640800    14.880975400    -0.013570407
 C      -14.526637005    15.546806095    -0.964403420
 N      -14.036471235    16.781225088    -1.618186553
 C      -12.767282672    16.629529355    -2.235516588
 C      -12.604584950    15.584580547    -3.167659125
 C      -11.384759776    15.395751192    -3.796774031
 C      -10.313686191    16.272204022    -3.569149813
 C      -10.489272394    17.323326085    -2.666261204
 C      -11.696575961    17.505158056    -2.002338843
 C      -14.203248565    17.968650523    -0.761735327
 C       -9.042774675    16.033902686    -4.255718341
 C       -7.965209279    16.813667385    -4.103051321
Si       -6.343359930    16.596139324    -4.914409570
 C       -5.051073079    16.679298891    -3.605756713
 C       -5.419820241    16.698070670    -2.254925467
 C       -4.447848549    16.760860780    -1.260783936
 C       -3.087599674    16.820052672    -1.590505815
 C       -2.722805332    16.804372034    -2.939897872
 C       -3.693393679    16.731264411    -3.938308366
 C       -2.110575815    16.884522000    -0.510020478
 C       -0.778218602    16.935272390    -0.675363279
 C        0.182496185    16.999432119     0.420886823
 C       -0.208675448    17.013854976     1.762394125
 C        0.741167494    17.075816877     2.781342292
 C        2.105592346    17.128572318     2.478958397
 C        2.500432204    17.112616011     1.134444326
 C        1.549885773    17.045420546     0.119503413
Si        3.368643980    17.210590120     3.815589361
 C        2.608200648    17.694634064     5.448418948
 C        4.184550506    15.500381730     3.998716332
 C        4.703548943    18.470226608     3.312226170
 C       -6.259013156    14.911717716    -5.792838742
 C       -6.057899155    17.980533320    -6.181097329
 C       -3.234593572    13.421941850     1.737151476
 C       -3.360975966    13.307228301    -1.366760281
 C       -0.657522505    -0.901483645    -1.542309710
 C       -0.615236318    -0.923072354     1.546699662
 H        1.206491606     2.694496176     0.524738910
 H        0.282961597     4.939508632     0.515634924
 H       -3.596477777     3.386479579    -0.513396985
 H       -2.713332363     1.120404004    -0.521926921
 H       -3.377550496     5.696339608    -0.253101399
 H       -0.569154747     6.769963698     0.484319158
 H       -0.341342848     9.074060341     0.740171096
 H       -1.213722014    11.346648026     0.741157258
 H       -5.149420599     9.786595666    -0.272404829
 H       -4.228305214     7.536063916    -0.284129640
 H       -6.086680628    11.795335242     1.210375449
 H       -6.360460904    13.718788335    -1.233847444
 H       -8.568876586    14.284537869    -1.845139125
 H      -10.988444883    14.140179545    -1.551933511
 H      -10.403583984    11.510846794     1.834578787
 H       -7.992514356    11.614928954     1.487273808
 H      -13.831177734    12.593584759     1.833714849
 H      -12.295761894    13.258221482     2.465173829
 H      -12.457538981    11.506902358     2.110987950
 H      -15.265882371    18.056440267    -0.476044456
 H      -13.955343457    18.876261673    -1.340105913
 H      -13.595204684    17.950192064     0.156248714
 H      -13.440716477    14.928017980    -3.394558395
 H      -11.265827091    14.565673939    -4.494063578
 H       -9.669066808    18.014504303    -2.465175479
 H      -11.788231937    18.322040671    -1.293163946
 H       -9.057543989    15.151914468    -4.908388804
 H       -8.001214699    17.704638767    -3.451817429
 H       -6.466174498    16.650617255    -1.934001675
 H       -4.756250718    16.772084965    -0.215855673
 H       -1.672943677    16.848761124    -3.222012713
 H       -3.349262998    16.721000565    -4.975935564
 H       -2.542709818    16.894525831     0.496494358
 H       -0.337187980    16.929819722    -1.675530869
 H       -1.264703893    16.974161128     2.024991438
 H        0.374937704    17.084156859     3.811726203
 H        3.552636425    17.151282442     0.838950049
 H        1.875966764    17.031666395    -0.918699464
 H      -12.847035939    13.429001541    -1.515211666
 H      -14.172150504    12.847913998    -0.477995358
 H      -13.885565866    14.894110424     1.023356058
 H      -12.560945897    15.452433303     0.018222233
 H      -14.830953109    14.847106411    -1.776743219
 H      -15.464994286    15.784636044    -0.418290006
 H        2.263644945    -1.029556778    -0.041436898
 H        2.275146344     0.478524341     0.906745311
 H        2.260922838     0.544125929    -0.876993169
 H        3.378784282    17.786432592     6.234755938
 H        1.869000551    16.950478427     5.793036103
 H        2.094405232    18.670189864     5.372048157
 H        4.898655925    15.592248246     4.867298844
 C        3.165580027    14.395198992     4.332276878
 C        4.991547963    15.069363320     2.760978178
 H        5.150238070    18.081221118     2.351184938
 C        4.119391954    19.865955772     3.028588245
 C        5.841608646    18.601870654     4.340042651
 H       -7.101126094    14.917080894    -6.544115936
 C       -4.942959219    14.683259620    -6.557279782
 C       -6.479227602    13.731045138    -4.830228530
 H       -5.044285787    17.779570666    -6.635464402
 C       -7.096460379    17.985388477    -7.316224080
 C       -6.016594751    19.375591505    -5.531829936
 H       -2.153038834    13.635650984     1.495045910
 C       -3.946359478    14.764429129     1.978473921
 C       -3.275071412    12.600755175     3.038701460
 H       -3.894383527    14.302707404    -1.410986210
 C       -1.847502130    13.576268657    -1.423703063
 C       -3.759824134    12.494133172    -2.611750666
 H       -1.782189800    -0.900977929    -1.444695317
 C       -0.298627269    -0.171628662    -2.849382260
 C       -0.194373324    -2.365845692    -1.642066198
 H       -0.125397971    -1.938844724     1.511014184
 C       -0.187985342    -0.232661856     2.855043716
 C       -2.140186770    -1.130535714     1.574367284
 H        2.600208386    14.586140198     5.253516790
 H        3.684540713    13.437792550     4.484035080
 H        2.438872842    14.226056361     3.524498797
 H        5.803829468    15.762263223     2.507318461
 H        4.365654076    14.940767190     1.866647573
 H        5.466758086    14.094407660     2.943679097
 H        3.334672722    19.859729072     2.258608776
 H        4.907684519    20.536645480     2.657888097
 H        3.700736132    20.346183026     3.923008209
 H        6.355075335    17.653366740     4.544166252
 H        5.505528927    19.013945623     5.300795825
 H        6.610130419    19.291965908     3.962249068
 H       -4.734238703    15.451413965    -7.312159485
 H       -4.986229123    13.727551080    -7.100358037
 H       -4.069687701    14.615555206    -5.893082713
 H       -7.435660888    13.770631183    -4.291199349
 H       -5.682958189    13.645007787    -4.075311270
 H       -6.480002706    12.783641384    -5.387249036
 H       -7.124184563    17.047559305    -7.885840084
 H       -6.858125179    18.777152883    -8.041146308
 H       -8.116953147    18.190648193    -6.962548519
 H       -5.262072809    19.464371593    -4.737507079
 H       -6.983500313    19.680275771    -5.108680447
 H       -5.757578485    20.133639870    -6.284998925
 H       -3.929094693    15.425027600     1.101741763
 H       -3.454560530    15.310761425     2.795036713
 H       -4.997456205    14.640369350     2.276091698
 H       -2.745222714    11.640721573     2.965668262
 H       -4.296813002    12.386746306     3.379146987
 H       -2.788056499    13.158737596     3.850846930
 H       -1.487798901    14.224567200    -0.612647062
 H       -1.599660215    14.102786999    -2.357551068
 H       -1.245433410    12.658397803    -1.416548755
 H       -4.834907923    12.273133496    -2.664734782
 H       -3.224317026    11.536871004    -2.685200677
 H       -3.508726926    13.058050237    -3.521917014
 H       -0.649030642     0.870322364    -2.874383807
 H       -0.771420847    -0.674884841    -3.704667645
 H        0.780129976    -0.162398531    -3.053870501
 H       -0.479666246    -2.972354298    -0.772855287
 H        0.891006914    -2.463511521    -1.776513769
 H       -0.656270808    -2.846513396    -2.516703112
 H        0.899165243    -0.118871841     2.953802123
 H       -0.514160283    -0.828586766     3.719420217
 H       -0.639395514     0.762283056     2.979607140
 H       -2.519286180    -1.693696385     0.712321009
 H       -2.698184206    -0.185227494     1.632366178
 H       -2.424272135    -1.708026621     2.466139271

