187   

Si        0.000000000     0.000000000     0.000000000
 C        1.865046456     0.000000000     0.000000000
 C       -0.679889587     1.710676448     0.000000000
 C        0.086301339     2.788474379    -0.455649398
 C       -0.435814586     4.081862521    -0.452570032
 C       -1.735013298     4.326659155    -0.000226089
 C       -2.503547363     3.244845283     0.450084389
 C       -1.985471502     1.952771973     0.447642358
 C       -2.324662409     5.661002253     0.022144742
 C       -1.702638053     6.782412027    -0.379653318
 C       -2.298404281     8.114337661    -0.354618801
 C       -3.599218115     8.347576697     0.100061360
 C       -4.131430768     9.636367156     0.107628172
 C       -3.378283515    10.719015314    -0.357633397
 C       -2.074997541    10.488075850    -0.817633497
 C       -1.541678723     9.201947336    -0.810449754
Si       -4.057778632    12.428286932    -0.357954682
 C       -3.437939281    13.415435826    -1.765455917
 C       -3.094431212    12.903631018    -2.955344490
 C       -2.598584913    13.699157458    -4.079024882
 C       -2.270347927    13.049480493    -5.278190063
 C       -1.797177530    13.756647403    -6.370602504
 C       -1.681385068    15.163826720    -6.314775561
 C       -2.012136505    15.817263409    -5.111851391
 C       -2.441107466    15.085965609    -4.012000346
 N       -1.200256615    15.860161027    -7.431511719
 C       -1.605147051    15.387422907    -8.765700723
 C       -1.059427481    17.316860809    -7.312857322
 C       -3.108368253    15.110291142    -8.954749138
 C       -3.984393670    16.368533288    -9.084466491
 N       -3.775389572    17.194027395   -10.291424312
 C       -2.754813793    18.171179383   -10.178279845
 C       -2.926827435    19.169604301    -9.197300928
 C       -1.968485477    20.155035540    -9.032705556
 C       -0.838103063    20.207689706    -9.863697139
 C       -0.689207526    19.235839402   -10.854991917
 C       -1.637143951    18.231390936   -11.023298048
 C       -3.802315756    16.426475720   -11.545212800
 C        0.141287876    21.272845766    -9.641830882
 C        1.259363394    21.435453854   -10.361668935
Si        2.462735417    22.780099210   -10.055903667
 C        2.470734457    23.250725417    -8.277338410
 C        2.311036864    22.251552300    -7.309093458
 C        2.312210083    22.572630112    -5.953280484
 C        2.483038783    23.894939534    -5.532579309
 C        2.649952161    24.891349059    -6.502729735
 C        2.646269113    24.574423105    -7.859478143
 C        2.490667498    24.274593169    -4.123546801
 C        2.340797063    23.414560531    -3.101786145
 C        2.347417654    23.787215724    -1.691158469
 C        2.514275507    25.105477930    -1.259503550
 C        2.513976148    25.415921025     0.100419710
 C        2.340531710    24.412738047     1.059024884
 C        2.172898967    23.089520568     0.628465144
 C        2.179307892    22.782035662    -0.729099552
Si        2.337609129    24.805519762     2.857716040
 C        2.170479677    26.638548620     3.159839523
 C        0.892494625    23.870320290     3.670568474
 C        3.964500440    24.200949534     3.639314780
 C        4.195102902    22.166126060   -10.542741580
 C        2.013390527    24.274187801   -11.142499098
 C       -5.958681444    12.382669885    -0.431295641
 C       -3.531241876    13.291136448     1.254249149
 C       -0.625174911    -0.912105733    -1.549229500
 C       -0.647987291    -0.918792244     1.536813539
 H        1.109202426     2.659270962    -0.819937893
 H        0.182245336     4.904065654    -0.808623262
 H       -3.518320357     3.413358788     0.805632464
 H       -2.633210303     1.149127790     0.808838337
 H       -3.349883301     5.700147857     0.402282564
 H       -0.677698162     6.745538740    -0.759846773
 H       -4.209272061     7.520425862     0.457826903
 H       -5.151098017     9.756520234     0.483485910
 H       -1.440754074    11.298801614    -1.192622137
 H       -0.526023340     9.042232471    -1.167645353
 H       -3.378841189    14.497187314    -1.571688027
 H       -3.152108814    11.828656860    -3.178133209
 H       -2.374829659    11.965928628    -5.349348002
 H       -1.508957839    13.223821613    -7.271776624
 H       -1.935335326    16.896174984    -5.027006499
 H       -2.675589102    15.614292926    -3.086715340
 H       -0.613307046    17.731998457    -8.235803989
 H       -0.359848088    17.548677172    -6.488740592
 H       -2.012279803    17.841699223    -7.133637569
 H       -4.726311311    15.822568497   -11.573637331
 H       -2.941833358    15.754762752   -11.689009875
 H       -3.847644319    17.129149357   -12.396842232
 H       -3.822534783    19.164925028    -8.578855656
 H       -2.106356484    20.913353316    -8.260315746
 H        0.179247169    19.259041023   -11.514319986
 H       -1.493005674    17.491426640   -11.804406241
 H       -0.127688092    21.936641241    -8.806598982
 H        1.506587983    20.768184778   -11.199956412
 H        2.176645482    21.197879640    -7.577944980
 H        2.180795701    21.778611171    -5.220240110
 H        2.785324141    25.926858778    -6.196397207
 H        2.782301212    25.393755825    -8.570353367
 H        2.631154059    25.343063564    -3.937004079
 H        2.201490471    22.345779567    -3.290589627
 H        2.647407936    25.905106308    -1.985824939
 H        2.649693657    26.465081881     0.377259009
 H        2.033295282    22.263990612     1.332268721
 H        2.050197497    21.748212428    -1.044033867
 H       -1.256268699    16.121073088    -9.528128770
 H       -1.032754263    14.449062684    -8.966368212
 H       -3.243597935    14.462054151    -9.840785970
 H       -3.487564498    14.511629091    -8.099073674
 H       -5.058791191    16.063296410    -9.095965513
 H       -3.855841155    17.003528283    -8.179323160
 H        2.262810150    -1.028880060     0.058559590
 H        2.259568464     0.558937484     0.868258223
 H        2.276412474     0.464062311    -0.913306351
 H        2.127691449    26.861499625     4.240991210
 H        1.244109830    27.032106359     2.703348219
 H        3.020573631    27.202565427     2.737694582
 H        1.092671710    22.774151543     3.489266998
 C        0.798846113    24.086432034     5.191430985
 C       -0.465196803    24.212533976     3.030755665
 H        3.920178587    24.520173232     4.720695072
 C        4.136691677    22.671985779     3.600713538
 C        5.203861578    24.852984315     2.999296429
 H        4.135245651    21.898772057   -11.637233455
 C        5.284952694    23.238465331   -10.370972308
 C        4.607920958    20.903726008    -9.764689703
 H        2.791571269    25.062460088   -10.926843914
 C        2.057655718    23.964244255   -12.649463615
 C        0.631444601    24.855739790   -10.794011453
 H       -6.294383050    11.812556755     0.482442272
 C       -6.601070585    13.780495527    -0.380082517
 C       -6.477223374    11.641407308    -1.676692316
 H       -3.979455982    14.325570889     1.215201380
 C       -4.059629925    12.587950408     2.516562470
 C       -2.002806595    13.436259200     1.364814299
 H       -0.150790867    -1.935124103    -1.516298767
 C       -2.153419137    -1.094546704    -1.573406109
 C       -0.189215586    -0.225353394    -2.856428574
 H       -1.772767760    -0.928190737     1.441778954
 C       -0.172668327    -2.380174126     1.623603725
 C       -0.291549548    -0.197196797     2.849105071
 H        1.710793818    23.796127608     5.729047495
 H       -0.012060481    23.471428842     5.608293739
 H        0.566416589    25.124642254     5.463152170
 H       -0.492119485    24.031232808     1.946713334
 H       -0.768921945    25.254213032     3.199252099
 H       -1.256163097    23.585485431     3.466316863
 H        3.329901271    22.128771403     4.108718888
 H        5.067302895    22.386285497     4.112699688
 H        4.217878849    22.277705870     2.577899630
 H        5.201351726    25.948840840     3.060440400
 H        5.332960998    24.578894770     1.942297060
 H        6.114721004    24.518863613     3.516681249
 H        5.108488422    24.139884369   -10.971630338
 H        6.258210699    22.840773123   -10.693570467
 H        5.415318029    23.553334615    -9.325542050
 H        3.903414887    20.068920444    -9.879827581
 H        4.732400932    21.087751891    -8.687648786
 H        5.579684840    20.538923426   -10.126892798
 H        3.040356817    23.619436700   -12.995480741
 H        1.832222191    24.873097369   -13.226225157
 H        1.312502805    23.216312855   -12.954368980
 H        0.535126657    25.156605203    -9.741630608
 H       -0.191976645    24.160662262   -11.014050803
 H        0.440010260    25.758498374   -11.391054197
 H       -6.339676919    14.347973905     0.522098608
 H       -7.696881285    13.690194915    -0.378229149
 H       -6.346130997    14.399402447    -1.251844850
 H       -6.109126305    10.609108332    -1.756112932
 H       -6.222367300    12.154663061    -2.615394946
 H       -7.573846148    11.576265589    -1.648623610
 H       -5.154794714    12.531426769     2.557815304
 H       -3.746969380    13.140938582     3.414157793
 H       -3.667227449    11.567602302     2.634415826
 H       -1.553615157    13.977935975     0.521076744
 H       -1.487500113    12.468580331     1.449966148
 H       -1.742047397    14.003318468     2.269539460
 H       -2.536954449    -1.668917518    -0.720660767
 H       -2.451335191    -1.649412872    -2.474941899
 H       -2.697268023    -0.139795280    -1.608578077
 H        0.899459853    -0.129074748    -2.956759690
 H       -0.625544426     0.776559641    -2.978290629
 H       -0.526067422    -0.814169136    -3.721667958
 H       -0.451963930    -2.981151980     0.748619116
 H       -0.631617062    -2.872757800     2.493212386
 H        0.913353619    -2.470180522     1.758490924
 H       -0.647125889     0.842584495     2.883612282
 H        0.787656649    -0.183675822     3.051807711
 H       -0.759670431    -0.710462458     3.701074388

