187   

Si        0.000000000     0.000000000     0.000000000
 C        1.865710338     0.000000000     0.000000000
 C       -0.671053140     1.714580741     0.000000000
 C        0.133178642     2.823483134    -0.280386007
 C       -0.404412004     4.111932683    -0.272841730
 C       -1.750619380     4.320036502     0.033413691
 C       -2.556720559     3.206557975     0.310653284
 C       -2.028551521     1.920373854     0.281809559
 C       -2.372316535     5.637958019     0.058523718
 C       -1.758364309     6.804890370    -0.201280771
 C       -2.439971506     8.095878712    -0.159095625
 C       -1.728508680     9.268030219    -0.443015268
 C       -2.356999646    10.513088244    -0.409322731
 C       -3.709680997    10.616878850    -0.066924913
 C       -4.418408818     9.445214939     0.229745578
 C       -3.791220836     8.203520358     0.185155876
Si       -4.602052788    12.228858810    -0.002759163
 C       -6.398668796    11.980459198    -0.244769543
 C       -6.925999221    10.989521418    -0.975705952
 C       -8.360546733    10.782710635    -1.175033382
 C       -8.771558683     9.700321816    -1.967598938
 C      -10.114200413     9.453146948    -2.192695116
 C      -11.094462105    10.239312305    -1.556810912
 C      -10.689666396    11.309641026    -0.748246204
 C       -9.335219108    11.585196127    -0.581169712
 N      -12.457580025     9.932808635    -1.831334897
 C      -12.827000157     8.550598747    -1.452792769
 C      -13.444780515    10.923963473    -1.369397365
 C      -12.658406211     8.241887609     0.049376056
 C      -12.623918827     6.725217721     0.324383897
 N      -11.300501026     6.199740750     0.724467053
 C      -10.268269363     6.327970664    -0.232938944
 C      -10.545370229     5.998293023    -1.576054389
 C       -9.557523322     6.112260354    -2.539707343
 C       -8.240219727     6.445841109    -2.191778357
 C       -7.955301038     6.724413851    -0.853112552
 C       -8.950739334     6.673647430     0.116079982
 C      -10.954115824     6.565153256     2.109534948
 C       -7.246772370     6.549356984    -3.260683089
 C       -5.955377342     6.858057013    -3.084328137
Si       -4.750684249     6.975323260    -4.454807340
 C       -3.205827422     6.026873523    -4.165508226
 C       -3.227395481     4.795712436    -3.499544108
 C       -2.044972076     4.089688153    -3.288837869
 C       -0.821668638     4.584412089    -3.758856597
 C       -0.806074165     5.807880389    -4.433487116
 C       -1.984400026     6.522516186    -4.635110228
 C        0.395451472     3.817523270    -3.519422081
 C        1.624126176     4.196129356    -3.911167496
 C        2.842922206     3.431397823    -3.673168983
 C        2.838459432     2.207642079    -3.000044824
 C        4.022614639     1.502810156    -2.789782116
 C        5.243787398     2.017679956    -3.235244964
 C        5.253236015     3.247735230    -3.906724773
 C        4.066747917     3.942767701    -4.125169641
Si        6.811940197     1.094699648    -2.962352968
 C        6.581272514    -0.282452334    -1.724188291
 C        7.400731860     0.346220866    -4.609931408
 C        8.128448132     2.322119223    -2.344088041
 C       -5.513972397     6.384368964    -6.093917797
 C       -4.326236373     8.827612026    -4.615697841
 C       -4.334844861    12.987975595     1.721224022
 C       -3.943997078    13.434089861    -1.316336751
 C       -0.677347223    -0.865249966    -1.554346353
 C       -0.558936487    -0.964310443     1.543987287
 H        1.199859175     2.726495958    -0.505389256
 H        0.238915596     4.958370605    -0.509321432
 H       -3.610639518     3.346909293     0.544351967
 H       -2.710360745     1.091382140     0.491277321
 H       -3.438622184     5.622895816     0.312902323
 H       -0.700544750     6.839900108    -0.469180996
 H       -0.673504127     9.208892439    -0.703090411
 H       -1.753718710    11.391076318    -0.651747128
 H       -5.474288500     9.460156150     0.524708336
 H       -4.368830804     7.310687300     0.420669935
 H       -7.036780034    12.725345506     0.253232028
 H       -6.309540538    10.244968640    -1.503671173
 H       -8.023957274     9.053335187    -2.436361305
 H      -10.414465334     8.637990703    -2.849506374
 H      -11.420908549    11.933759549    -0.245088945
 H       -9.041604953    12.433052282     0.037658541
 H      -14.433929548    10.656058315    -1.779240546
 H      -13.183586806    11.915109157    -1.781054250
 H      -13.531239104    11.004578447    -0.275366343
 H      -11.812856161     6.358445014     2.770363852
 H      -10.666663913     7.621804696     2.233675858
 H      -10.123784206     5.924052118     2.456691486
 H      -11.537952931     5.660381943    -1.860581696
 H       -9.804622429     5.901527142    -3.580834402
 H       -6.940209107     6.995591291    -0.557324725
 H       -8.694654019     6.926516887     1.140303885
 H       -7.673449136     6.337549715    -4.251438157
 H       -5.538116450     7.070913312    -2.087482162
 H       -4.154935128     4.362916030    -3.113213343
 H       -2.074219927     3.145691960    -2.744331026
 H        0.131189470     6.215032662    -4.807063623
 H       -1.906856155     7.473323655    -5.169961289
 H        0.244401149     2.878695399    -2.975320911
 H        1.772232496     5.134985135    -4.451213971
 H        1.896390028     1.787597530    -2.649236986
 H        3.955218726     0.543557313    -2.267850838
 H        6.177968972     3.698200544    -4.277386708
 H        4.093952940     4.894057498    -4.652243554
 H      -13.876410666     8.371525679    -1.770666981
 H      -12.195496381     7.859168332    -2.058602833
 H      -11.724926004     8.713152295     0.419147821
 H      -13.471417305     8.716461409     0.624834530
 H      -13.345581087     6.468625131     1.132935236
 H      -12.970013348     6.151417913    -0.564206218
 H        2.263387562    -1.029614064    -0.031010781
 H        2.264725958     0.485559779     0.909105245
 H        2.274939335     0.540603526    -0.872020767
 H        7.535803213    -0.801582212    -1.525432340
 H        5.860349881    -1.038283622    -2.081612707
 H        6.210355345     0.110147089    -0.759975306
 H        8.326568265    -0.248863827    -4.361451439
 C        6.365678568    -0.614617430    -5.223470492
 C        7.780718508     1.400361849    -5.665064424
 H        8.241263669     3.092262311    -3.161730205
 C        7.692477360     3.056237992    -1.062990095
 C        9.506576801     1.678538721    -2.109677794
 H       -6.480800818     6.952578079    -6.216509277
 C       -4.628897270     6.687674308    -7.316359212
 C       -5.836951543     4.878836302    -6.081167087
 H       -3.716676613     8.928032828    -5.558678117
 C       -5.567256768     9.726790364    -4.751406043
 C       -3.475893532     9.325287230    -3.436906928
 H       -4.909402608    13.958563006     1.729086158
 C       -4.893368593    12.093556891     2.842751662
 C       -2.858608015    13.302019251     2.019462907
 H       -2.825246072    13.469678712    -1.174095353
 C       -4.230225141    12.957872726    -2.750775219
 C       -4.488462167    14.865219170    -1.153685868
 H       -1.797758175    -0.894836946    -1.416233659
 C       -0.387331065    -0.096919476    -2.856168671
 C       -0.177942406    -2.312800019    -1.709664262
 H        0.110262097    -1.873018352     1.581381263
 C       -0.342850284    -0.160918844     2.839851463
 C       -2.014288548    -1.463143628     1.510841575
 H        6.102572171    -1.451716610    -4.564196992
 H        6.767190575    -1.063109821    -6.143513357
 H        5.431633319    -0.110005330    -5.510066779
 H        8.575540546     2.081197799    -5.335048929
 H        6.924425412     2.010582198    -5.985451863
 H        8.158607160     0.904899713    -6.571346096
 H        6.735998454     3.587468389    -1.171607601
 H        8.437599403     3.818015853    -0.792672616
 H        7.603673901     2.389191300    -0.195297431
 H        9.918404434     1.195251754    -3.005079023
 H        9.500558040     0.935499839    -1.301258727
 H       10.234483102     2.448089806    -1.813693051
 H       -4.442680484     7.759057897    -7.463829512
 H       -5.120345352     6.333840351    -8.234015510
 H       -3.654575349     6.179945079    -7.276796260
 H       -6.502260774     4.577508711    -5.260982431
 H       -4.935336299     4.251792150    -6.020152270
 H       -6.345922753     4.593832881    -7.012415826
 H       -6.189229784     9.483256915    -5.621670567
 H       -5.260168838    10.775335463    -4.874820327
 H       -6.214648138     9.701853922    -3.862319340
 H       -2.567850387     8.733431056    -3.254227599
 H       -4.032839138     9.348102521    -2.486937790
 H       -3.131732325    10.352757959    -3.623737857
 H       -5.962904598    11.869416781     2.730082688
 H       -4.783348388    12.594392058     3.814897733
 H       -4.361510535    11.134994194     2.929213464
 H       -2.410633451    14.007305356     1.307812408
 H       -2.226532233    12.402597457     2.043112881
 H       -2.765632697    13.766456845     3.011883496
 H       -3.818887050    11.960930028    -2.968343766
 H       -3.774116551    13.644851645    -3.476684062
 H       -5.304443120    12.928171523    -2.984687395
 H       -4.247999690    15.316406909    -0.182758213
 H       -5.576645554    14.927120042    -1.293010709
 H       -4.044780882    15.523842804    -1.914389697
 H       -0.775955420     0.931252910    -2.847147203
 H       -0.876280973    -0.596874860    -3.705016466
 H        0.682080681    -0.055577897    -3.102589637
 H       -0.400080875    -2.948397139    -0.843180509
 H        0.902151298    -2.373500212    -1.899861795
 H       -0.668436541    -2.789162340    -2.570878695
 H        0.696975756     0.159649266     2.987233008
 H       -0.601647303    -0.775656164     3.713577278
 H       -0.975166492     0.737050747     2.895673884
 H       -2.245159413    -2.079014962     0.632454988
 H       -2.749070798    -0.648333245     1.552785698
 H       -2.212116311    -2.096107564     2.388547498

