187   

Si        0.000000000     0.000000000     0.000000000
 C        1.865826790     0.000000000     0.000000000
 C       -0.643986353     1.724145689     0.000000000
 C        0.101347981     2.743850736     0.602189925
 C       -0.372068243     4.054487112     0.610809460
 C       -1.599850120     4.376075022     0.024761824
 C       -2.348120167     3.352327625    -0.569140561
 C       -1.880167537     2.040509942    -0.576595040
 C       -2.127039626     5.737846775     0.015038909
 C       -1.489412474     6.786980387     0.559817827
 C       -1.969679257     8.162818234     0.577702687
 C       -1.160131353     9.124967849     1.196249228
 C       -1.554431823    10.457512922     1.251060426
 C       -2.739324617    10.877854207     0.632243421
 C       -3.535651447     9.923157511    -0.009758762
 C       -3.155611565     8.580012483    -0.032120611
Si       -3.226909027    12.648177113     0.726807513
 C       -3.630559157    13.474716382    -0.848175527
 C       -3.128775611    13.201399854    -2.059494778
 C       -3.521739819    13.929157280    -3.269626372
 C       -2.947071275    13.578971219    -4.500694901
 C       -3.292148668    14.242604169    -5.666568442
 C       -4.215726427    15.310260521    -5.635408402
 C       -4.768817932    15.682604615    -4.398008350
 C       -4.407864768    15.008411637    -3.237539210
 N       -4.544404579    15.963579728    -6.840283665
 C       -4.803807603    15.097564255    -8.007914271
 C       -5.447287894    17.120407309    -6.747821856
 C       -5.752924447    13.916735407    -7.749283975
 C       -7.245096531    14.304354293    -7.727195763
 N       -8.006073347    13.821674647    -6.549749229
 C       -7.671403290    12.478946661    -6.194422332
 C       -8.112399093    11.467746634    -7.065808702
 C       -7.824416369    10.141855447    -6.784769772
 C       -7.104843079     9.789537120    -5.632576366
 C       -6.679679756    10.799288157    -4.765765943
 C       -6.962746061    12.133970698    -5.036320101
 C       -8.006663819    14.770014432    -5.422998970
 C       -6.832227227     8.371139998    -5.391346078
 C       -6.158444816     7.901982170    -4.333639069
Si       -5.813276538     6.133696743    -4.024015011
 C       -4.028918714     5.887838537    -3.656896937
 C       -3.190980463     6.958318680    -3.322869039
 C       -1.842104872     6.738860139    -3.049927855
 C       -1.294445830     5.453236213    -3.134771533
 C       -2.133284941     4.388318162    -3.477993706
 C       -3.485981241     4.600382235    -3.730581700
 C        0.121754970     5.256750718    -2.842659426
 C        0.728521590     4.058487200    -2.878019411
 C        2.136960818     3.817337513    -2.594098522
 C        3.026804853     4.835853766    -2.246021753
 C        4.366839201     4.549057502    -1.984154424
 C        4.839875067     3.235271303    -2.056191992
 C        3.949010911     2.212353506    -2.408752344
 C        2.616450999     2.503462044    -2.681862579
Si        6.601507868     2.830312358    -1.715725388
 C        7.482758288     4.245473214    -0.879370305
 C        6.635276609     1.280541720    -0.608326268
 C        7.490886829     2.426368761    -3.348747677
 C       -6.783654191     5.581318940    -2.480419874
 C       -6.378739679     5.093707683    -5.513573793
 C       -4.782554412    12.756952832     1.826028168
 C       -1.852146638    13.683271560     1.549951773
 C       -0.653879261    -0.905943979    -1.542167555
 C       -0.640597636    -0.903408057     1.545797316
 H        1.073712013     2.557595936     1.067164013
 H        0.232768239     4.830956782     1.076203171
 H       -3.306080789     3.584161077    -1.033650202
 H       -2.509853758     1.283288893    -1.049954325
 H       -3.092031692     5.860276631    -0.485179413
 H       -0.518740734     6.644242869     1.047540576
 H       -0.221013524     8.826537837     1.658238210
 H       -0.891837222    11.149051864     1.779670930
 H       -4.464652001    10.196250840    -0.519666751
 H       -3.790668847     7.853663627    -0.538417974
 H       -4.359320171    14.293735963    -0.716063335
 H       -2.401779234    12.400194299    -2.239888524
 H       -2.227451152    12.759722140    -4.546120905
 H       -2.834739861    13.951144925    -6.608587583
 H       -5.467138667    16.510239477    -4.326829655
 H       -4.844922397    15.327241279    -2.289676763
 H       -5.509187204    17.616192515    -7.731855069
 H       -5.018365531    17.860823714    -6.047563379
 H       -6.467961133    16.869437153    -6.418351585
 H       -8.483791255    15.708152240    -5.752241204
 H       -7.007294771    14.998339625    -5.020504441
 H       -8.627775470    14.361101348    -4.605999292
 H       -8.682220594    11.735607910    -7.952812641
 H       -8.167204437     9.364854832    -7.467227573
 H       -6.113100682    10.550095396    -3.867072026
 H       -6.606259104    12.902836004    -4.353777354
 H       -7.232427420     7.719767992    -6.179789248
 H       -5.773887432     8.583337613    -3.556565651
 H       -3.555956193     7.987962441    -3.263891306
 H       -1.208724677     7.579567175    -2.770148698
 H       -1.733697422     3.377386675    -3.544487446
 H       -4.090811300     3.725489175    -3.985823602
 H        0.674103810     6.163158252    -2.584408287
 H        0.157694568     3.156728819    -3.125491840
 H        2.677832427     5.864280244    -2.174581788
 H        5.018644938     5.385383913    -1.718835916
 H        4.264548021     1.168042692    -2.484608127
 H        1.937693395     1.700334012    -2.966180762
 H       -5.181160074    15.723134740    -8.845612218
 H       -3.813015418    14.707181676    -8.346536115
 H       -5.586203248    13.139530629    -8.519442650
 H       -5.468918396    13.419074928    -6.796867476
 H       -7.371314425    15.403872694    -7.805733843
 H       -7.754646983    13.875282582    -8.621799401
 H        2.267610919    -1.017048931    -0.149270019
 H        2.274899951     0.384722079     0.950650017
 H        2.261019268     0.640745710    -0.811820287
 H        8.522502903     3.973004205    -0.624923939
 H        6.974255293     4.528285110     0.060115656
 H        7.521805903     5.140891197    -1.524165743
 H        6.184388732     0.450222599    -1.226159079
 C        8.054829884     0.847280288    -0.202510319
 C        5.776224645     1.440988147     0.659336141
 H        8.566314722     2.229508113    -3.069977381
 C        6.945181591     1.172486323    -4.055411480
 C        7.462378606     3.602699275    -4.341891751
 H       -6.573848714     4.477945355    -2.369484616
 C       -6.316239710     6.284041157    -1.193441948
 C       -8.302831204     5.769714385    -2.631199039
 H       -7.390193292     5.509419466    -5.798820637
 C       -5.438048995     5.255652358    -6.721507579
 C       -6.568092482     3.593079171    -5.229195739
 H       -5.003755507    13.857445504     1.937385859
 C       -6.012129665    12.088411410     1.186133052
 C       -4.566243033    12.167438780     3.230181848
 H       -1.585988616    13.147927013     2.506308412
 C       -0.587802049    13.778049235     0.676804380
 C       -2.301791960    15.108792799     1.918867724
 H       -1.778933193    -0.895034608    -1.451049816
 C       -0.280098644    -0.198236632    -2.857877888
 C       -0.205663615    -2.376331360    -1.623771427
 H       -0.186025411    -1.935071867     1.513419487
 C       -0.194342833    -0.226239590     2.854725253
 C       -2.172337233    -1.056229487     1.566038445
 H        8.713252700     0.655628360    -1.059565745
 H        8.012170278    -0.092136162     0.367626774
 H        8.555663041     1.577606758     0.446851053
 H        4.725426167     1.683692313     0.441571686
 H        6.158950807     2.210373115     1.342635084
 H        5.764704068     0.500379110     1.227950735
 H        7.011819190     0.263591130    -3.444411991
 H        7.527984757     0.971820523    -4.966272407
 H        5.901188323     1.286563496    -4.380220096
 H        7.914557309     4.520507870    -3.944519976
 H        6.445890836     3.851595299    -4.679570310
 H        8.032439107     3.346365270    -5.246386736
 H       -5.248266661     6.132775666    -0.982808919
 H       -6.857341792     5.878085819    -0.326362031
 H       -6.512431546     7.364775095    -1.198642601
 H       -8.727703947     5.236480980    -3.491229216
 H       -8.596178973     6.825701227    -2.719905998
 H       -8.821661881     5.380555435    -1.743578874
 H       -5.304754665     6.300382535    -7.036210386
 H       -5.841738970     4.720185655    -7.591950506
 H       -4.436042671     4.840360425    -6.540574603
 H       -7.271184706     3.389855534    -4.411407821
 H       -5.628156044     3.073557609    -5.000771109
 H       -6.981253227     3.094483288    -6.118373076
 H       -6.234528737    12.454203853     0.174191638
 H       -6.907075607    12.292798598     1.791047203
 H       -5.922163652    10.993965037     1.135369026
 H       -3.762740242    12.661775453     3.791294914
 H       -4.345027266    11.090354660     3.213359806
 H       -5.478896301    12.283133767     3.832354033
 H       -0.175607650    12.802652618     0.385863591
 H        0.210484227    14.299234158     1.223722256
 H       -0.753673336    14.350616563    -0.247897814
 H       -3.144621866    15.131491985     2.621309284
 H       -2.576777762    15.711540200     1.042435242
 H       -1.478350507    15.644873725     2.413008868
 H       -0.590798988     0.855819155    -2.886994987
 H       -0.779282889    -0.689739887    -3.704889318
 H        0.796768848    -0.239132328    -3.069979452
 H       -0.509465745    -2.972409122    -0.753606831
 H        0.880269030    -2.487876054    -1.741934355
 H       -0.661249050    -2.860592410    -2.499395981
 H        0.895972267    -0.156062670     2.959555264
 H       -0.549249429    -0.806007414     3.718664194
 H       -0.607740818     0.785932481     2.973649131
 H       -2.564942184    -1.621820500     0.711748238
 H       -2.697182900    -0.090612106     1.599473841
 H       -2.484016332    -1.605570973     2.466164702

