187   

Si        0.000000000     0.000000000     0.000000000
 C        1.865025025     0.000000000     0.000000000
 C       -0.677561964     1.711762165     0.000000000
 C        0.048098372     2.766246802     0.564706857
 C       -0.466603922     4.062529581     0.563917214
 C       -1.719038748     4.333259118     0.006293410
 C       -2.447694290     3.274739645    -0.552166372
 C       -1.936663858     1.979745204    -0.552616231
 C       -2.299970141     5.671158292    -0.018722376
 C       -1.714775417     6.773963565     0.478730359
 C       -2.306293732     8.107709455     0.447759509
 C       -1.593041784     9.178303987     1.001354476
 C       -2.120950704    10.468057003     0.992876279
 C       -3.370082159    10.718698090     0.416240046
 C       -4.083975442     9.649551180    -0.140612181
 C       -3.558836092     8.359648824    -0.120267061
Si       -4.116134834    12.402316904     0.376622216
 C       -4.996441591    12.660707062    -1.209942765
 C       -4.605169668    12.057790895    -2.340322866
 C       -5.251536684    12.210421498    -3.644762995
 C       -4.711538665    11.504296778    -4.731071140
 C       -5.273364205    11.602871751    -5.993114086
 C       -6.421783123    12.390957888    -6.190148110
 C       -6.969528088    13.093569927    -5.110497546
 C       -6.377769674    13.009402510    -3.852625632
 N       -6.933786496    12.435641446    -7.523669808
 C       -7.571029676    11.163927794    -7.932460357
 C       -7.757121391    13.616023005    -7.837641888
 C       -8.935616342    10.896136423    -7.269360096
 C       -9.117428720     9.436704463    -6.813279841
 N       -8.568411823     9.112800296    -5.482994452
 C       -8.951464822     9.927517386    -4.405436423
 C      -10.196170850    10.593769250    -4.429660476
 C      -10.580618623    11.399015285    -3.370313308
 C       -9.790739793    11.509835362    -2.218678831
 C       -8.576593244    10.817518719    -2.177358192
 C       -8.157352255    10.038020857    -3.246212028
 C       -7.167599479     8.662356532    -5.508673306
 C      -10.252699722    12.376963348    -1.135170849
 C       -9.589425522    12.565808365     0.012469170
Si      -10.131751480    13.638650352     1.387906535
 C       -8.701774420    14.712974383     1.820475859
 C       -7.881707410    15.188727994     0.787636743
 C       -6.790918355    16.003540939     1.074859442
 C       -6.498620898    16.369701927     2.395839667
 C       -7.320721018    15.896503056     3.421667485
 C       -8.412053408    15.075191978     3.138383172
 C       -5.343989771    17.225611760     2.644388818
 C       -4.946891028    17.647577002     3.856646122
 C       -3.789838113    18.504049146     4.094829412
 C       -2.974079876    18.971831347     3.061318007
 C       -1.877015459    19.789105111     3.333125434
 C       -1.567357861    20.150091077     4.648141966
 C       -2.383202018    19.680643371     5.686638294
 C       -3.480969881    18.870114133     5.411709319
Si       -0.123044120    21.227975903     5.024255737
 C        0.985502353    21.433214777     3.538085796
 C       -0.735646970    22.945575490     5.569683734
 C        0.844209982    20.441975747     6.462979482
 C      -11.579542438    14.755308654     0.858470445
 C      -10.711657470    12.588145646     2.860648783
 C       -5.357537344    12.556277853     1.805405828
 C       -2.765994093    13.727405653     0.557595611
 C       -0.643818989    -0.928554533    -1.532772407
 C       -0.629970788    -0.904590309     1.551802680
 H        1.033149778     2.615782605     1.015162872
 H        0.119349595     4.866425941     1.005758055
 H       -3.426175564     3.463358254    -0.989752850
 H       -2.553042162     1.195192016    -1.000091521
 H       -3.287223537     5.730103739    -0.486895280
 H       -0.728786733     6.719092656     0.948591328
 H       -0.616163396     9.003852652     1.447978428
 H       -1.522734496    11.261803364     1.448468442
 H       -5.067412109     9.786649095    -0.604716585
 H       -4.135072965     7.545041254    -0.555146675
 H       -5.852204598    13.350023475    -1.184336015
 H       -3.744663518    11.371677020    -2.374942284
 H       -3.827966606    10.881706775    -4.585864772
 H       -4.826467146    11.087109693    -6.840726042
 H       -7.862448641    13.698308666    -5.239867728
 H       -6.818024542    13.561421389    -3.020658369
 H       -7.928845470    13.642969847    -8.927607291
 H       -7.194664878    14.528635045    -7.571509362
 H       -8.734181658    13.645915598    -7.331903833
 H       -6.967048832     8.079843379    -6.421542453
 H       -6.992851862     7.985576301    -4.651398912
 H       -6.440902123     9.492988847    -5.456774571
 H      -10.861488075    10.485721561    -5.280307228
 H      -11.528803535    11.934135326    -3.429284025
 H       -7.935416579    10.892852507    -1.295974371
 H       -7.198122715     9.532565288    -3.180231717
 H      -11.212330909    12.863716755    -1.353476267
 H       -8.630476849    12.055608388     0.207416278
 H       -8.062904355    14.932110249    -0.262190731
 H       -6.160086456    16.359774881     0.261760550
 H       -7.114147211    16.165945631     4.455481021
 H       -9.019520951    14.734273758     3.980587345
 H       -4.798149611    17.529719549     1.745349503
 H       -5.493161334    17.353095231     4.757062523
 H       -3.190548727    18.702798397     2.028994140
 H       -1.276950087    20.125573722     2.483003427
 H       -2.188847804    19.929469087     6.733858368
 H       -4.103834628    18.517012108     6.231358214
 H       -7.677557643    11.191017436    -9.039652922
 H       -6.859671760    10.337515317    -7.712185797
 H       -9.061930913    11.573774439    -6.398012901
 H       -9.750250241    11.166985713    -7.964709242
 H      -10.206786005     9.189580136    -6.783019766
 H       -8.678859645     8.740125782    -7.561215258
 H        2.262841931    -1.029259761    -0.049607989
 H        2.277201144     0.472849047     0.908366015
 H        2.258629078     0.551617736    -0.873372214
 H        1.870158640    22.047837761     3.783325704
 H        0.460587595    21.925681319     2.700832480
 H        1.351477326    20.454407005     3.178401326
 H        0.194457907    23.567039719     5.718444310
 C       -1.600839097    23.630235803     4.495656061
 C       -1.516229966    22.932443208     6.896081989
 H        0.122743545    20.392271095     7.329848114
 C        1.301759686    19.005940932     6.149243062
 C        2.061750954    21.270467292     6.909789782
 H      -12.388947836    14.060313389     0.491141162
 C      -12.156254696    15.588206426     2.017067189
 C      -11.205336103    15.706178874    -0.293435725
 H      -11.036170513    13.323577335     3.653348080
 C      -11.920267245    11.699286430     2.513998702
 C       -9.604476293    11.704411926     3.459956229
 H       -5.989208623    13.467725268     1.579878940
 C       -6.287718730    11.333319169     1.887654499
 C       -4.697260675    12.771978664     3.177789150
 H       -2.254002972    13.513235022     1.540662246
 C       -1.710820402    13.648983888    -0.560547245
 C       -3.322622413    15.159738942     0.617432077
 H       -1.769434163    -0.926949923    -1.447468485
 C       -0.268578293    -0.225829018    -2.850115060
 C       -0.181944079    -2.395449700    -1.599566697
 H       -0.164852553    -1.931821057     1.520324676
 C       -0.186678892    -0.219492277     2.857369607
 C       -2.159885330    -1.072416389     1.576100234
 H       -1.085479353    23.756695740     3.534831202
 H       -1.884045178    24.639608033     4.827192201
 H       -2.541713884    23.095809887     4.300446239
 H       -0.941855120    22.523273517     7.736790078
 H       -2.461241680    22.375326347     6.829038138
 H       -1.787199299    23.959454372     7.181778108
 H        0.473338533    18.336527676     5.876686456
 H        1.777826364    18.559927107     7.034165748
 H        2.044541172    18.958456115     5.341924364
 H        1.802514025    22.290243370     7.222515758
 H        2.836907321    21.344748789     6.135582755
 H        2.540480479    20.795233935     7.778461704
 H      -12.551639323    14.977269805     2.838555850
 H      -12.997442024    16.199247093     1.658554540
 H      -11.427819547    16.292435978     2.443253999
 H      -10.814738183    15.190037423    -1.181084925
 H      -10.462637165    16.460755345     0.003502877
 H      -12.092635959    16.263156626    -0.625432340
 H      -12.794615504    12.265433630     2.168345790
 H      -12.248154979    11.144805207     3.404915843
 H      -11.689688507    10.943064279     1.749572637
 H       -8.723099592    12.273448549     3.787122152
 H       -9.264818232    10.921069257     2.767165344
 H       -9.979734367    11.182327858     4.351831270
 H       -6.857725410    11.154484691     0.966153829
 H       -7.027357353    11.482425696     2.687558792
 H       -5.754895296    10.404337146     2.136238782
 H       -4.081020983    13.679634637     3.227015931
 H       -4.075253063    11.924935184     3.495518341
 H       -5.472335951    12.893168188     3.949006059
 H       -1.217880229    12.669993333    -0.630711168
 H       -0.913133362    14.382719173    -0.378134083
 H       -2.122799878    13.881240404    -1.553159448
 H       -4.053394015    15.303365333     1.426999176
 H       -3.793466448    15.473829995    -0.323590729
 H       -2.507516518    15.871815435     0.811250202
 H       -0.607968188     0.818659926    -2.898332841
 H       -0.738055801    -0.741311367    -3.699934443
 H        0.812168501    -0.230462397    -3.045180607
 H       -0.483422247    -2.986168354    -0.724872458
 H        0.905238310    -2.498095689    -1.714131980
 H       -0.630374712    -2.890386620    -2.473259760
 H        0.903044011    -0.137274389     2.958449418
 H       -0.532116316    -0.801551761     3.723884709
 H       -0.610591868     0.788177063     2.976040675
 H       -2.548569374    -1.645755258     0.724997561
 H       -2.694794342    -0.112359608     1.607093366
 H       -2.463753801    -1.621246629     2.479322628

