187   

Si        0.000000000     0.000000000     0.000000000
 C        1.863904287     0.000000000     0.000000000
 C       -0.694190213     1.703465668     0.000000000
 C        0.113367678     2.834049080     0.154074396
 C       -0.446731699     4.112723140     0.149334322
 C       -1.819235923     4.285887462    -0.037961035
 C       -2.627039970     3.150687761    -0.190963707
 C       -2.076055017     1.874883327    -0.157476857
 C       -2.466848443     5.590575418    -0.053754779
 C       -1.857864236     6.777987552     0.104378779
 C       -2.572725683     8.050795219     0.077012516
 C       -1.871550442     9.250014703     0.249117731
 C       -2.536148607    10.477266531     0.226283245
 C       -3.912800317    10.531883153    -0.009762648
 C       -4.614076886     9.332161675    -0.194293842
 C       -3.952952559     8.109605747    -0.143587788
Si       -4.884901009    12.094391878    -0.060809938
 C       -6.241028515    11.905064142    -1.278145106
 C       -6.159954377    11.122507739    -2.363567722
 C       -7.232380523    10.959146999    -3.346136917
 C       -7.022920348    10.107821230    -4.442791485
 C       -8.008139225     9.921909686    -5.397740627
 C       -9.236727104    10.606835284    -5.297442374
 C       -9.450260376    11.454179615    -4.199002893
 C       -8.462223544    11.608993559    -3.232300201
 N      -10.216902666    10.388159507    -6.294987642
 C       -9.762905271    10.526779074    -7.688210530
 C      -11.538894225    10.992122823    -6.062483389
 C       -9.459735222    11.979510798    -8.099541766
 C       -8.826386538    12.034178699    -9.502722531
 N       -7.421985534    12.483610992    -9.511697522
 C       -6.492570613    11.667972464    -8.830592932
 C       -6.580086143    10.265300833    -8.950212456
 C       -5.677645878     9.445440880    -8.289921863
 C       -4.615637849     9.985938462    -7.552060581
 C       -4.513093889    11.377135482    -7.461413435
 C       -5.433477570    12.211210017    -8.082004405
 C       -7.299610118    13.937354945    -9.306811697
 C       -3.682130149     9.087665764    -6.867732503
 C       -2.644062458     9.526886520    -6.144185566
Si       -1.423426098     8.503417901    -5.253304304
 C       -2.074406585     6.896755496    -4.648470375
 C       -3.405843868     6.768617527    -4.238466201
 C       -3.888769798     5.542495181    -3.780809231
 C       -3.047220330     4.429964789    -3.705595483
 C       -1.709955981     4.565212991    -4.101287719
 C       -1.226220655     5.785520562    -4.561540046
 C       -3.489316117     3.122995917    -3.237072297
 C       -4.730712870     2.818814873    -2.821956026
 C       -5.125127682     1.491431064    -2.360789414
 C       -4.228016136     0.420486087    -2.315442696
 C       -4.634796553    -0.835873311    -1.869953860
 C       -5.949929051    -1.045228344    -1.444310313
 C       -6.850778628     0.027736650    -1.481023177
 C       -6.442319931     1.279726525    -1.933559306
Si       -6.497887142    -2.699346036    -0.854290202
 C       -5.203429751    -4.000263978    -1.193880229
 C       -6.807810098    -2.630598422     1.022694808
 C       -8.129050374    -3.135231312    -1.729458046
 C        0.069442749     8.219429974    -6.399099832
 C       -0.847039700     9.506488729    -3.745448553
 C       -5.644657046    12.395172806     1.656741581
 C       -3.805890127    13.590170024    -0.518243762
 C       -0.673957953    -0.866528756    -1.557360698
 C       -0.621088797    -0.954175498     1.525167996
 H        1.195140213     2.758230258     0.286312031
 H        0.198787828     4.978239816     0.281673065
 H       -3.701993314     3.263740650    -0.333965195
 H       -2.763463985     1.028088797    -0.262987321
 H       -3.550454351     5.546448028    -0.218718203
 H       -0.780708869     6.845997150     0.262861429
 H       -0.796601793     9.227849983     0.414167568
 H       -1.942502073    11.379528119     0.389278677
 H       -5.695041832     9.309221558    -0.377103767
 H       -4.524837144     7.193382928    -0.285595972
 H       -7.141538003    12.497622263    -1.063666927
 H       -5.262454468    10.532031282    -2.606265612
 H       -6.069458251     9.585567728    -4.550630377
 H       -7.828754826     9.246689588    -6.232455811
 H      -10.380892615    12.000809487    -4.089987638
 H       -8.655362549    12.265069909    -2.383110746
 H      -12.240025436    10.638227808    -6.837584167
 H      -11.538913547    12.093309504    -6.069902042
 H      -11.930888268    10.642219535    -5.090429278
 H       -8.025795084    14.462993141    -9.949572892
 H       -6.295033492    14.266969838    -9.628195613
 H       -7.465186864    14.254642029    -8.264428622
 H       -7.356179145     9.819433931    -9.565658655
 H       -5.784230997     8.362920648    -8.368638955
 H       -3.703868797    11.827819407    -6.883889911
 H       -5.326875024    13.284672244    -7.963727382
 H       -3.919523723     8.024070709    -6.990765528
 H       -2.437198968    10.608121788    -6.059049605
 H       -4.104273484     7.611413823    -4.267478429
 H       -4.929912352     5.460623583    -3.475025383
 H       -1.037165712     3.711729837    -4.037059540
 H       -0.171943327     5.832092535    -4.847884128
 H       -2.703460311     2.357941545    -3.232308374
 H       -5.523022435     3.570023066    -2.816811074
 H       -3.198128368     0.556303900    -2.648127716
 H       -3.890696230    -1.637826030    -1.870668474
 H       -7.891366077    -0.078844617    -1.163094873
 H       -7.157156957     2.099501658    -1.956879502
 H       -8.854202413     9.894648023    -7.827120970
 H      -10.547433593    10.092209262    -8.347511714
 H      -10.380925813    12.585741660    -8.069284624
 H       -8.782122923    12.437252790    -7.350830568
 H       -8.876627808    11.042213739   -10.006100187
 H       -9.408578366    12.719255930   -10.159909128
 H        2.263868590    -1.028668070    -0.036305566
 H        2.271317656     0.482754936     0.905696405
 H        2.261821189     0.541002666    -0.877320723
 H       -5.548672814    -4.997262534    -0.866929342
 H       -4.257779889    -3.786115964    -0.665390620
 H       -4.980867708    -4.065837975    -2.274289462
 H       -7.082933835    -3.682871331     1.322873209
 C       -5.553095800    -2.219973099     1.815018833
 C       -7.968253235    -1.702926485     1.424453166
 H       -8.861670749    -2.327309237    -1.437447001
 C       -7.997905460    -3.118513342    -3.263231369
 C       -8.719084812    -4.487281286    -1.291075151
 H        0.850199323     7.697862966    -5.774029722
 C       -0.275249933     7.312562782    -7.594078713
 C        0.685646667     9.526464817    -6.930096991
 H       -0.226083159    10.356736187    -4.148900584
 C       -2.035731720    10.100998047    -2.975105885
 C        0.024902051     8.693801982    -2.773172106
 H       -6.249231628    13.343433001     1.569044415
 C       -6.595015192    11.262364214     2.084419029
 C       -4.586344249    12.600879703     2.754614785
 H       -2.961961443    13.605939751     0.230564525
 C       -3.195121698    13.476910194    -1.925971137
 C       -4.557878329    14.930042140    -0.413311720
 H       -1.797997164    -0.868079265    -1.438417199
 C       -0.337286050    -0.104801833    -2.851946435
 C       -0.216931448    -2.328419717    -1.699638621
 H       -0.095525046    -1.951931450     1.491354079
 C       -0.241493162    -0.258908363     2.845586128
 C       -2.137799646    -1.216140354     1.526317795
 H       -4.699337208    -2.891726303     1.656801969
 H       -5.765644819    -2.242398253     2.893520770
 H       -5.220660177    -1.196089374     1.588273912
 H       -8.923114068    -1.967229027     0.953039124
 H       -7.763797518    -0.645553589     1.204508954
 H       -8.137171308    -1.761917422     2.509704540
 H       -7.631910648    -2.159460651    -3.657043733
 H       -8.980488157    -3.285402792    -3.727381272
 H       -7.337151394    -3.907230858    -3.646495391
 H       -8.907970576    -4.550082001    -0.211591301
 H       -8.087760051    -5.341089464    -1.570579556
 H       -9.689692906    -4.649693840    -1.782279510
 H       -0.671937649     6.331254720    -7.298937774
 H        0.626039280     7.113589566    -8.190530718
 H       -1.003826750     7.769303030    -8.279453981
 H        1.029914390    10.201372886    -6.136421595
 H       -0.001794862    10.090500907    -7.576045956
 H        1.569007755     9.301940657    -7.545066973
 H       -2.699174386    10.724873778    -3.588490715
 H       -1.664928770    10.742365594    -2.161096701
 H       -2.658759544     9.333353794    -2.487308221
 H        0.912696943     8.251775471    -3.240785252
 H       -0.533964182     7.880131488    -2.283510259
 H        0.389875123     9.342891242    -1.964660856
 H       -7.415474091    11.089989588     1.374629518
 H       -7.065882198    11.508044601     3.046682788
 H       -6.076887286    10.303634198     2.232235684
 H       -3.920414006    13.452250735     2.564761304
 H       -3.957457047    11.713012740     2.913732341
 H       -5.077334065    12.803845064     3.717361311
 H       -2.556548194    12.591384108    -2.050998008
 H       -2.557146662    14.347190112    -2.132939023
 H       -3.954302017    13.454103407    -2.721609887
 H       -4.952525208    15.132113465     0.590545970
 H       -5.391767502    15.008567627    -1.124507084
 H       -3.877464857    15.761804646    -0.646161897
 H       -0.666852362     0.944016917    -2.838039442
 H       -0.836418908    -0.577932624    -3.709696527
 H        0.736280243    -0.106975215    -3.081694639
 H       -0.490274879    -2.955009518    -0.840866054
 H        0.865806595    -2.426432632    -1.850797409
 H       -0.691471598    -2.786727747    -2.579531262
 H        0.838326657    -0.103522468     2.964117060
 H       -0.558471183    -0.873389056     3.700220569
 H       -0.732511802     0.717422168     2.969567275
 H       -2.490562174    -1.758160136     0.639290853
 H       -2.729431664    -0.293155432     1.612891318
 H       -2.410391242    -1.835147622     2.393239193

