187   

Si        0.000000000     0.000000000     0.000000000
 C        1.865099189     0.000000000     0.000000000
 C       -0.673407858     1.713626411     0.000000000
 C        0.070104713     2.770548986    -0.535950697
 C       -0.439819753     4.068558520    -0.536023509
 C       -1.705124845     4.338982859    -0.008014892
 C       -2.451601646     3.278123757     0.521640464
 C       -1.945300822     1.981157636     0.522859083
 C       -2.279813151     5.679966973     0.013722597
 C       -1.673073751     6.781529901    -0.459887732
 C       -2.250603317     8.121522914    -0.436678453
 C       -3.517255240     8.385985276     0.093011056
 C       -4.031547618     9.681409711     0.095390876
 C       -3.286236682    10.742782554    -0.430280639
 C       -2.018459225    10.481460716    -0.963135454
 C       -1.509800614     9.184673884    -0.968546964
Si       -3.967512029    12.449088099    -0.425400183
 C       -2.637480936    13.666315010    -0.717864263
 C       -2.647921830    14.661926381    -1.613876229
 C       -1.538773761    15.602832760    -1.791483574
 C       -1.647257429    16.613506406    -2.759586226
 C       -0.622598124    17.523540852    -2.960127984
 C        0.532419720    17.482933282    -2.150380533
 C        0.642772495    16.474277947    -1.179512190
 C       -0.372540616    15.537204513    -1.026275338
 N        1.555560692    18.428368567    -2.386319429
 C        1.125611106    19.840857879    -2.474083595
 C        2.803469234    18.252511391    -1.624695211
 C        0.021874175    20.278926894    -1.496807399
 C        0.371164922    20.007019792    -0.022625699
 N       -0.723160607    20.349107620     0.913556702
 C       -1.964815216    19.735385772     0.598346186
 C       -1.987523145    18.336749285     0.427842963
 C       -3.171831735    17.690184569     0.119925193
 C       -4.381213867    18.395607825     0.032841390
 C       -4.360281485    19.776571989     0.234049765
 C       -3.172293804    20.444871757     0.514717184
 C       -0.770747358    21.790086169     1.216569840
 C       -5.601169533    17.655921458    -0.296607267
 C       -6.811148861    18.218716151    -0.407536362
Si       -8.365499429    17.350275453    -0.814969541
 C       -9.228302785    18.234168424    -2.177480920
 C       -8.494666881    19.008973207    -3.082636382
 C       -9.138205295    19.683349371    -4.119317482
 C      -10.523168792    19.587312941    -4.282431352
 C      -11.253829658    18.804500618    -3.378720202
 C      -10.615366986    18.134595745    -2.338052957
 C      -11.239321119    20.274768411    -5.351873190
 C      -10.662478636    21.054189533    -6.282271879
 C      -11.380531489    21.740812461    -7.350980803
 C      -12.765768607    21.648600899    -7.508430813
 C      -13.412457624    22.321901015    -8.544737047
 C      -12.684774068    23.097686016    -9.452413833
 C      -11.294833185    23.190573320    -9.297826190
 C      -10.653046257    22.521974164    -8.259138012
Si      -13.523526669    23.992275374   -10.825334220
 C      -15.288565138    23.426336708   -11.035750588
 C      -13.521317070    25.860620293   -10.461389069
 C      -12.539753879    23.685417092   -12.425835633
 C       -8.006596282    15.585283123    -1.433727127
 C       -9.451654652    17.254078599     0.739739277
 C       -5.339964808    12.610792281    -1.727123710
 C       -4.714959227    12.810771544     1.289884203
 C       -0.629086384    -0.905019796    -1.551728182
 C       -0.647047035    -0.925401559     1.533038955
 H        1.065848705     2.620979738    -0.962616152
 H        0.160295079     4.874045966    -0.955378026
 H       -3.440105676     3.466404782     0.936378246
 H       -2.575056189     1.194377381     0.947208836
 H       -3.278048821     5.741968984     0.457179300
 H       -0.675253784     6.720724010    -0.903975435
 H       -4.114269054     7.577136780     0.510076742
 H       -5.027729166     9.826846019     0.522624596
 H       -1.395019845    11.272644453    -1.391952060
 H       -0.523663103     8.999345148    -1.390397109
 H       -1.771587012    13.516335319    -0.049716255
 H       -3.490432309    14.848043645    -2.291933595
 H       -2.547216799    16.680100871    -3.372313457
 H       -0.707674987    18.275514938    -3.740241666
 H        1.516048321    16.410088940    -0.538394348
 H       -0.253893529    14.752288218    -0.277265412
 H        3.575151562    18.924955165    -2.038613645
 H        3.176784008    17.222103469    -1.767013980
 H        2.708524522    18.451417188    -0.545958829
 H        0.220902959    22.113669347     1.576949002
 H       -1.482323547    21.963619111     2.043821190
 H       -1.055156489    22.422582070     0.361778504
 H       -1.067195716    17.761539427     0.520199435
 H       -3.162279736    16.607668950    -0.034403714
 H       -5.284820069    20.351329637     0.169496372
 H       -3.195945673    21.521095659     0.650963146
 H       -5.425582240    16.582426855    -0.453395059
 H       -6.952374761    19.299021554    -0.236927439
 H       -7.407532615    19.117022847    -3.005404932
 H       -8.548108547    20.286669603    -4.806701830
 H      -12.333068986    18.717318542    -3.488398271
 H      -11.236474423    17.540677225    -1.662297541
 H      -12.321343323    20.113386825    -5.354517248
 H       -9.580556607    21.215806736    -6.280233813
 H      -13.355188223    21.047712011    -6.818311047
 H      -14.498196392    22.212520954    -8.615381009
 H      -10.674375620    23.781055964    -9.977900564
 H       -9.573082929    22.607386228    -8.154623285
 H        2.014884003    20.498162082    -2.356618583
 H        0.764965277    19.997508754    -3.520499824
 H       -0.188593076    21.354252290    -1.644756179
 H       -0.927286217    19.757090632    -1.747101732
 H        0.605012376    18.926155029     0.123195414
 H        1.283274819    20.566124278     0.274337851
 H        2.263070784    -1.029220122     0.050154393
 H        2.258933739     0.552038206     0.873027872
 H        2.277039000     0.471934808    -0.908929319
 H      -15.770483405    23.934850326   -11.889847822
 H      -15.895916566    23.636834780   -10.138087430
 H      -15.335718791    22.339039017   -11.228018281
 H      -14.103440519    26.334864224   -11.303814962
 C      -14.230147318    26.204629718    -9.138534663
 C      -12.115050637    26.486055496   -10.444327159
 H      -11.505290592    24.095816292   -12.236450645
 C      -12.399182440    22.187723486   -12.752743790
 C      -13.118731643    24.414261748   -13.651451869
 H       -7.343331594    15.104579500    -0.656259306
 C       -9.270324178    14.719914756    -1.576906545
 C       -7.253026094    15.590989528    -2.776663288
 H      -10.379575302    16.686640886     0.439271121
 C       -8.779160948    16.488935167     1.893886832
 C       -9.886550902    18.642177157     1.242333733
 H       -5.638267590    13.701533636    -1.720626661
 C       -4.855847032    12.253506923    -3.143575317
 C       -6.593056736    11.776320377    -1.408480434
 H       -5.542517646    12.057049371     1.429470922
 C       -3.694229401    12.611100656     2.424514857
 C       -5.324616266    14.217597861     1.408967070
 H       -0.162783713    -1.931752364    -1.519842788
 C       -2.158747697    -1.075040066    -1.576887044
 C       -0.186118256    -0.219819824    -2.857336013
 H       -1.772263398    -0.927595092     1.442510096
 C       -0.180326644    -2.390318609     1.607318048
 C       -0.280346600    -0.216148219     2.849276964
 H      -15.273744493    25.866665221    -9.101668397
 H      -14.255362713    27.294657268    -8.996951316
 H      -13.715624259    25.792145530    -8.258623849
 H      -11.571821500    26.362405674   -11.389696502
 H      -11.482482587    26.092150686    -9.636420838
 H      -12.188679502    27.570004567   -10.273078739
 H      -11.936061176    21.608128182   -11.941289309
 H      -11.754428689    22.052675315   -13.632873140
 H      -13.357255641    21.709306740   -12.995426394
 H      -13.182376026    25.502216298   -13.520442309
 H      -14.116364460    24.052297847   -13.933270986
 H      -12.473618562    24.247584050   -14.526436339
 H       -9.819658330    14.590391397    -0.635886976
 H       -8.996534406    13.708744461    -1.913087632
 H       -9.974288347    15.109834956    -2.325328202
 H       -6.287914835    16.114751576    -2.733634111
 H       -7.836266232    16.042155624    -3.592374514
 H       -7.037908087    14.560042251    -3.095316578
 H       -8.509865863    15.456783943     1.634457959
 H       -9.464814810    16.422106632     2.750469279
 H       -7.872181551    16.987867017     2.265372509
 H      -10.412344211    19.236592931     0.482065624
 H       -9.046180441    19.245727307     1.612716925
 H      -10.584410902    18.536576008     2.085102394
 H       -3.983781279    12.835569729    -3.471903576
 H       -5.651492827    12.447994805    -3.876558803
 H       -4.596310778    11.190215965    -3.249214164
 H       -7.068094460    12.049186372    -0.457407217
 H       -6.396166610    10.695491177    -1.389847311
 H       -7.354737250    11.931120608    -2.187053343
 H       -3.240050390    11.610650901     2.433672744
 H       -4.187644360    12.729481166     3.399840159
 H       -2.878451490    13.346994961     2.401427897
 H       -6.134651172    14.400532440     0.690356759
 H       -4.581593202    15.020356003     1.292232798
 H       -5.764805098    14.355612185     2.407075855
 H       -2.546942833    -1.650456030    -0.726952466
 H       -2.461148970    -1.622926393    -2.481205489
 H       -2.695100542    -0.115832666    -1.606870188
 H        0.903440063    -0.133749670    -2.956950232
 H       -0.613290303     0.786241476    -2.977632418
 H       -0.528114318    -0.803944783    -3.723798623
 H       -0.469366051    -2.983909247     0.730444382
 H       -0.636663422    -2.885502990     2.476844179
 H        0.905954399    -2.488169480     1.734272347
 H       -0.625506579     0.826717104     2.892465786
 H        0.799610993    -0.214427583     3.048661746
 H       -0.750636011    -0.731138150     3.699020385

