187   

Si        0.000000000     0.000000000     0.000000000
 C        1.865126731     0.000000000     0.000000000
 C       -0.671234600     1.713694381     0.000000000
 C        0.090863612     2.778943369    -0.491243011
 C       -0.420165875     4.076672880    -0.490108527
 C       -1.705022392     4.337103456    -0.007402015
 C       -2.469731727     3.267655475     0.477917856
 C       -1.961938551     1.971854681     0.480066145
 C       -2.283869019     5.674516692     0.015065153
 C       -1.673755203     6.792988033    -0.412671416
 C       -2.286872578     8.116744706    -0.374036249
 C       -3.578063495     8.313511343     0.121430268
 C       -4.146122398     9.583344030     0.150296142
 C       -3.439469403    10.689973580    -0.333625854
 C       -2.146475143    10.498129462    -0.832268519
 C       -1.575246213     9.226325681    -0.845423724
Si       -4.252281893    12.335846118    -0.263790389
 C       -3.447679359    13.640223097    -1.256327971
 C       -2.756940621    13.448862122    -2.387901431
 C       -2.128807315    14.531239065    -3.149090707
 C       -1.427210123    14.220055353    -4.323353739
 C       -0.817617924    15.211708371    -5.074603266
 C       -0.922425909    16.564506228    -4.689058784
 C       -1.622137391    16.878122701    -3.513014700
 C       -2.196997038    15.867963595    -2.750109657
 N       -0.284781118    17.547531539    -5.484012494
 C       -0.532649220    17.435599591    -6.934677824
 C       -0.367329595    18.936882752    -5.003549524
 C       -2.020966307    17.541009861    -7.310997956
 C       -2.213358390    17.206488882    -8.800166123
 N       -3.584829644    16.864619072    -9.207677712
 C       -3.996981748    15.514274489    -9.004350046
 C       -3.398766496    14.630186558    -8.096272142
 C       -3.876289572    13.330086113    -7.972560611
 C       -4.925310227    12.867803629    -8.775869866
 C       -5.504395246    13.750250924    -9.696154243
 C       -5.052117400    15.055810979    -9.813494867
 C       -4.590777326    17.850412190    -8.768297783
 C       -5.397203946    11.489715634    -8.611708052
 C       -6.392943363    10.955758892    -9.331480943
Si       -7.011475599     9.245223785    -9.159325842
 C       -6.824353421     8.598356284    -7.449506507
 C       -7.239750600     9.387534630    -6.369626131
 C       -7.109873171     8.922562302    -5.062306529
 C       -6.580805474     7.654403510    -4.804985726
 C       -6.171408298     6.864938438    -5.886708032
 C       -6.287933681     7.331541942    -7.193834548
 C       -6.425166334     7.124001703    -3.455344732
 C       -6.775212022     7.773133936    -2.332527542
 C       -6.615994371     7.235074127    -0.986550463
 C       -6.074139472     5.970768625    -0.740420638
 C       -5.939920096     5.495028475     0.563679598
 C       -6.333102621     6.281861576     1.650669507
 C       -6.884326160     7.547197826     1.406150660
 C       -7.036759979     8.010504943     0.102469582
Si       -6.164773386     5.673681156     3.379495540
 C       -5.076569663     4.160453738     3.458964454
 C       -5.395452930     7.085143100     4.402148249
 C       -7.877226951     5.254587665     4.088286853
 C       -8.856202545     9.222408596    -9.627945272
 C       -6.067107430     8.149085567   -10.397761148
 C       -6.033155873    12.124407721    -0.912441404
 C       -4.314343525    12.913373129     1.547903710
 C       -0.630846353    -0.906860859    -1.549894770
 C       -0.651124710    -0.917973124     1.535946050
 H        1.102072990     2.636447005    -0.881991685
 H        0.194066765     4.889427607    -0.872940211
 H       -3.473187141     3.449459960     0.860230797
 H       -2.604492130     1.177869197     0.869967530
 H       -3.301886670     5.721250114     0.420805913
 H       -0.661521909     6.761962842    -0.821823509
 H       -4.161837606     7.465981090     0.485579038
 H       -5.158825536     9.666321381     0.558868224
 H       -1.543357119    11.328572779    -1.210415934
 H       -0.566611042     9.097562885    -1.231893918
 H       -3.585122560    14.653536140    -0.844513564
 H       -2.614133606    12.458009565    -2.840438869
 H       -1.352397282    13.181214957    -4.648147512
 H       -0.250002245    14.943228445    -5.962088544
 H       -1.726064267    17.906727515    -3.183399319
 H       -2.724340985    16.137015028    -1.833894218
 H        0.264351946    19.579356748    -5.640890764
 H        0.049646183    18.994423773    -3.981958000
 H       -1.388458305    19.349375111    -4.996786295
 H       -4.259174139    18.861101595    -9.057852151
 H       -4.778430663    17.835305902    -7.682725812
 H       -5.546235959    17.654846547    -9.284815303
 H       -2.575491214    14.954493985    -7.463510242
 H       -3.419406077    12.662972651    -7.240180887
 H       -6.320722363    13.412767379   -10.334925570
 H       -5.501835340    15.728881048   -10.540313336
 H       -4.866063535    10.936270068    -7.825129879
 H       -6.901356403    11.537217344   -10.117229555
 H       -7.659680701    10.389071517    -6.510871382
 H       -7.426861792     9.559382618    -4.238086321
 H       -5.753214369     5.876104360    -5.707654660
 H       -5.948741041     6.670707251    -7.996044039
 H       -5.982530679     6.124220945    -3.405113251
 H       -7.211987130     8.775077077    -2.378702854
 H       -5.746876530     5.344937024    -1.569518537
 H       -5.522852196     4.492487688     0.693416570
 H       -7.214436178     8.202247764     2.217351316
 H       -7.483040421     8.988325979    -0.071757317
 H        0.056380698    18.222742157    -7.454915672
 H       -0.110739892    16.463686859    -7.280871533
 H       -2.621225945    16.856067000    -6.679022626
 H       -2.404447408    18.551688218    -7.088261432
 H       -1.907681038    18.080428748    -9.423062855
 H       -1.545065602    16.367876363    -9.104220012
 H        2.263482600    -1.028842404     0.054706785
 H        2.258780388     0.556156141     0.870467027
 H        2.276327915     0.467961057    -0.911389550
 H       -4.966857981     3.805675307     4.499423919
 H       -4.060880608     4.381635797     3.079834083
 H       -5.488428224     3.325327446     2.866664093
 H       -6.142627685     7.930557712     4.372805811
 C       -5.165008130     6.711182430     5.876943955
 C       -4.075512544     7.602898582     3.802958031
 H       -7.689559292     4.857002064     5.127603666
 C       -8.812563022     6.471206742     4.207817936
 C       -8.596439240     4.157680924     3.281593797
 H       -8.908971950     9.597346151   -10.690913187
 C       -9.468518455     7.811493596    -9.587141846
 C       -9.704796737    10.160321112    -8.751028490
 H       -6.442466384     7.098098259   -10.232537245
 C       -6.334485396     8.520529538   -11.867540193
 C       -4.547336046     8.163986061   -10.153286923
 H       -6.532080106    11.386329567    -0.220875671
 C       -6.849275349    13.428114817    -0.886333885
 C       -6.062001175    11.542201459    -2.336863654
 H       -4.848842884    13.906422808     1.539101891
 C       -5.093498885    11.961464661     2.473000612
 C       -2.906645083    13.131964571     2.131445071
 H       -0.168035850    -1.935042543    -1.515843089
 C       -2.161236153    -1.071730474    -1.575672732
 C       -0.185465324    -0.225322911    -2.856626894
 H       -1.775565701    -0.928406983     1.437549799
 C       -0.174769265    -2.378829091     1.625513551
 C       -0.299542992    -0.195063460     2.848964191
 H       -6.078294389     6.393098058     6.395173289
 H       -4.787041629     7.583188108     6.430655994
 H       -4.414630478     5.919505778     6.005259054
 H       -4.179813297     7.973563115     2.772148869
 H       -3.275636437     6.849938335     3.802258847
 H       -3.698583601     8.450385327     4.392966136
 H       -8.404993465     7.275355272     4.833516934
 H       -9.761116197     6.170548831     4.676476619
 H       -9.077701113     6.902252862     3.232208531
 H       -8.031239432     3.218680966     3.221462029
 H       -8.835249863     4.469491432     2.254716428
 H       -9.555964424     3.908039065     3.757004128
 H       -8.972187486     7.100663726   -10.260195938
 H      -10.521420945     7.848537696    -9.901858209
 H       -9.466005626     7.372589566    -8.579007559
 H       -9.348492715    11.199350788    -8.749227965
 H       -9.765913037     9.826011576    -7.705487449
 H      -10.738807345    10.189760233    -9.123132623
 H       -7.392300834     8.447496168   -12.150231186
 H       -5.792644966     7.832394212   -12.532527883
 H       -5.986544748     9.530821036   -12.123818922
 H       -4.261267997     7.870149794    -9.134170280
 H       -4.095227645     9.147532008   -10.349113073
 H       -4.049122784     7.455275604   -10.829499520
 H       -6.928265788    13.874820264     0.112390330
 H       -7.879287756    13.233756237    -1.218111687
 H       -6.449234338    14.195082648    -1.564532617
 H       -5.552208156    10.570320569    -2.418651891
 H       -5.609730994    12.211802209    -3.083534167
 H       -7.100357720    11.381155638    -2.657524910
 H       -6.133789214    11.804693992     2.161619477
 H       -5.136871987    12.378940492     3.489144035
 H       -4.616339811    10.974828838     2.569037628
 H       -2.299068546    13.842569646     1.554561660
 H       -2.330873027    12.198673204     2.216077281
 H       -2.978217246    13.542497960     3.148314425
 H       -2.551767048    -1.643919785    -0.724641380
 H       -2.464842931    -1.620729473    -2.478885068
 H       -2.694086011    -0.110769155    -1.608224773
 H        0.904467213    -0.142030254    -2.955515795
 H       -0.609568054     0.781745901    -2.978782137
 H       -0.528337116    -0.810081640    -3.722238930
 H       -0.449642528    -2.980432977     0.749555404
 H       -0.636891402    -2.871505858     2.493340122
 H        0.910841236    -2.467378460     1.764916413
 H       -0.654174042     0.845082733     2.880910849
 H        0.779008359    -0.182052612     3.055406064
 H       -0.770903620    -0.707449040     3.699597560

