187   

Si        0.000000000     0.000000000     0.000000000
 C        1.865736981     0.000000000     0.000000000
 C       -0.669543065     1.715057276     0.000000000
 C        0.174137845     2.825975177    -0.095049627
 C       -0.349277816     4.119459430    -0.093676688
 C       -1.726938404     4.331136425    -0.000711207
 C       -2.571600590     3.216340011     0.096745419
 C       -2.051667703     1.925461022     0.101026405
 C       -2.324657359     5.661460677     0.004964297
 C       -1.640595725     6.815281246    -0.076427683
 C       -2.254959573     8.139357809    -0.069382557
 C       -3.636933997     8.324271142     0.024641554
 C       -4.187995785     9.605712621     0.028335964
 C       -3.362929015    10.730998087    -0.039117761
 C       -1.975383903    10.550146327    -0.131048204
 C       -1.430561734     9.269398274    -0.154594651
Si       -4.031836202    12.447503129    -0.037909050
 C       -2.970570086    13.395027958     1.109164710
 C       -2.339408508    14.567156144     0.965869651
 C       -1.523772253    15.155352480     2.037374641
 C       -0.881004889    16.383202221     1.845100331
 C       -0.104153839    16.954585994     2.850519713
 C        0.070026559    16.288091929     4.070315520
 C       -0.572028737    15.051552006     4.269246316
 C       -1.362230947    14.507985673     3.270392035
 N        0.839559870    16.773675687     5.166898588
 C        1.103961753    18.219167604     5.225128659
 C        2.020815985    15.943339865     5.467241514
 C        2.377096148    18.690130445     4.500843634
 C        2.370016671    20.221148592     4.318805257
 N        2.978008879    20.676821721     3.045766483
 C        2.338996091    20.071205479     1.920417472
 C        1.012218052    20.458982510     1.657673480
 C        0.331062792    19.912043058     0.582416004
 C        0.949829900    18.974408264    -0.257994193
 C        2.270514753    18.602871408     0.003011261
 C        2.967550352    19.148296220     1.075665820
 C        4.448597450    20.581026566     3.062479063
 C        0.189729419    18.424033966    -1.381922718
 C        0.686846118    17.525617899    -2.240945548
Si       -0.198309646    16.797219502    -3.660599120
 C       -0.020238964    14.968455320    -3.601654156
 C        0.432366041    14.317566073    -2.447548064
 C        0.560087270    12.929472826    -2.424467496
 C        0.234630364    12.162270272    -3.549857757
 C       -0.216721038    12.818118806    -4.700366462
 C       -0.341048748    14.205097912    -4.729551923
 C        0.378921494    10.710481973    -3.494942507
 C        0.095702471     9.896359182    -4.525617609
 C        0.221713817     8.444330661    -4.524049489
 C        0.664155119     7.715877147    -3.417803242
 C        0.764045142     6.325213073    -3.476922732
 C        0.440464833     5.638064660    -4.651074412
 C       -0.000853555     6.368068931    -5.763089690
 C       -0.113925635     7.752807870    -5.696444928
Si        0.561177875     3.805749730    -4.762433862
 C        1.582407328     3.108262583    -3.368559183
 C       -1.186254866     3.054851837    -4.690091034
 C        1.339956991     3.342450024    -6.436673934
 C       -2.043295722    17.261306686    -3.624393008
 C        0.566068336    17.453819952    -5.272432121
 C       -4.121802171    13.128261281    -1.803666842
 C       -5.797042825    12.477381921     0.680433630
 C       -0.602686980    -0.953949257    -1.533025375
 C       -0.665805703    -0.876682784     1.552676450
 H        1.261168233     2.721933356    -0.161634696
 H        0.329119176     4.967556984    -0.167504738
 H       -3.647876625     3.359244295     0.173450301
 H       -2.759645445     1.096296790     0.187256022
 H       -3.416062910     5.668859436     0.082396022
 H       -0.550320058     6.814200079    -0.160501332
 H       -4.300173293     7.463943334     0.088361642
 H       -5.276308166     9.686108332     0.087543993
 H       -1.284046180    11.398056698    -0.192759679
 H       -0.352754595     9.146960993    -0.237181262
 H       -2.890098896    12.843929383     2.068674557
 H       -2.373117310    15.162283770     0.047514243
 H       -0.977720252    16.906412627     0.891828834
 H        0.381180546    17.911628317     2.666919636
 H       -0.461509519    14.536756027     5.221383309
 H       -1.859098828    13.554136273     3.455641977
 H        2.499259725    16.311369443     6.389913278
 H        2.768124927    15.931422225     4.658057179
 H        1.701473394    14.903284217     5.653896866
 H        4.832192463    21.254761233     3.848783874
 H        4.850916510    20.945667836     2.101312293
 H        4.838643573    19.569432486     3.250902356
 H        0.532031306    21.197764424     2.296490525
 H       -0.696892541    20.218519177     0.388382963
 H        2.770875740    17.873625896    -0.635821838
 H        3.992730868    18.838721722     1.256305154
 H       -0.830251168    18.822242181    -1.454324019
 H        1.722918575    17.157693765    -2.142437760
 H        0.692179918    14.866135828    -1.535751207
 H        0.913381868    12.440062493    -1.518447553
 H       -0.474887729    12.246661047    -5.590244838
 H       -0.693273100    14.659070257    -5.659922347
 H        0.734966207    10.311661582    -2.542550045
 H       -0.266209990    10.312929719    -5.472198026
 H        0.925944075     8.231000111    -2.495935794
 H        1.103514335     5.803956121    -2.577805420
 H       -0.270651726     5.884627228    -6.706119351
 H       -0.465240983     8.302512461    -6.567394732
 H        0.208953191    18.755650056     4.834315205
 H        1.170870563    18.481135139     6.308325621
 H        3.276762743    18.375904216     5.056937641
 H        2.449200856    18.180844103     3.518772129
 H        1.328446405    20.616615564     4.342318430
 H        2.901735774    20.716791814     5.158493049
 H        2.263341605    -1.030333210     0.021161643
 H        2.263244446     0.525095024     0.887168037
 H        2.274220196     0.495918021    -0.898333785
 H        1.695742982     2.013703647    -3.463028510
 H        1.107970396     3.308205398    -2.389765447
 H        2.594051118     3.550287009    -3.354960050
 H       -1.040947749     1.936624458    -4.736763350
 C       -1.918755484     3.388621952    -3.380434680
 C       -2.081299676     3.467035879    -5.872887877
 H        0.642860172     3.746225170    -7.227069448
 C        2.718216576     3.994947888    -6.648429647
 C        1.465867142     1.823421315    -6.653221554
 H       -2.074338365    18.389330258    -3.637648073
 C       -2.824082685    16.750303185    -4.848502446
 C       -2.759109936    16.776104805    -2.350961896
 H       -0.037876176    16.999373113    -6.110462746
 C        0.481505067    18.984654476    -5.400789092
 C        2.030079453    17.014433385    -5.452210915
 H       -4.366320335    14.225920017    -1.702143918
 C       -2.786305477    12.994321355    -2.545686275
 C       -5.222256465    12.473397424    -2.659320989
 H       -6.412528388    11.805029562     0.015857196
 C       -5.871927132    11.928053401     2.116317169
 C       -6.428420341    13.881143355     0.653928197
 H       -0.106700891    -1.965724518    -1.467510915
 C       -2.125436459    -1.174377057    -1.575936452
 C       -0.168386048    -0.292975331    -2.853029729
 H       -1.790724924    -0.855499937     1.459171277
 C       -0.228632794    -2.347948974     1.663247341
 C       -0.288707840    -0.142386952     2.852098544
 H       -1.384172308     3.052610137    -2.478806116
 H       -2.897541530     2.890392799    -3.354352749
 H       -2.116662258     4.463637765    -3.258805793
 H       -1.668425650     3.191562919    -6.850869345
 H       -2.296381811     4.545034643    -5.887397974
 H       -3.055809369     2.963031770    -5.797728145
 H        2.696716079     5.090740913    -6.563272363
 H        3.090106852     3.773059045    -7.658607381
 H        3.479951252     3.624132518    -5.950044687
 H        0.505612731     1.295248688    -6.590353621
 H        2.158591790     1.346422918    -5.947460390
 H        1.862582797     1.619425619    -7.658108043
 H       -2.429595473    17.116431008    -5.804563122
 H       -3.867574661    17.094212478    -4.798470706
 H       -2.868005028    15.652964570    -4.899983711
 H       -2.301433726    17.139961516    -1.421307828
 H       -2.808717218    15.677934359    -2.288435132
 H       -3.798929874    17.131540271    -2.342979720
 H       -0.546062112    19.368922873    -5.368503000
 H        0.898193438    19.304800490    -6.366751501
 H        1.058760226    19.512036955    -4.627847470
 H        2.165408598    15.924129595    -5.414535353
 H        2.705839340    17.459514840    -4.709209304
 H        2.401113848    17.334428908    -6.436481570
 H       -1.943814704    13.471654755    -2.022923031
 H       -2.841882432    13.476338852    -3.532743390
 H       -2.500124554    11.948951556    -2.737372465
 H       -6.231817025    12.606730222    -2.251984644
 H       -5.060044698    11.396859485    -2.812176247
 H       -5.232706949    12.924520242    -3.662259806
 H       -5.447550974    10.920663466     2.224827827
 H       -6.920715445    11.855836593     2.437285038
 H       -5.371257144    12.578624771     2.846960369
 H       -6.497042824    14.309124352    -0.354534028
 H       -5.892303527    14.602970534     1.286681734
 H       -7.456662306    13.838748203     1.039997352
 H       -2.519095781    -1.688536968    -0.690428029
 H       -2.387748131    -1.806245938    -2.437139481
 H       -2.687565350    -0.238538417    -1.702372475
 H        0.918159795    -0.168466823    -2.943892953
 H       -0.633222590     0.693734821    -3.001890694
 H       -0.479153958    -0.911685462    -3.706596146
 H       -0.529745513    -2.957232111     0.801338782
 H       -0.694336431    -2.812462068     2.544747636
 H        0.855555665    -2.464150689     1.792693389
 H       -0.620308491     0.905706566     2.869895643
 H        0.790611420    -0.151871968     3.053254643
 H       -0.768160825    -0.629798334     3.713071291

