187   

Si        0.000000000     0.000000000     0.000000000
 C        1.865227505     0.000000000     0.000000000
 C       -0.674270337     1.713198839     0.000000000
 C        0.127639543     2.802526301    -0.355233009
 C       -0.391903092     4.096922300    -0.352316949
 C       -1.724007400     4.331190707    -0.001717058
 C       -2.527771010     3.238132520     0.349013340
 C       -2.011640266     1.945256770     0.348715031
 C       -2.310638053     5.667042658     0.015556980
 C       -1.652845865     6.796735018    -0.296103265
 C       -2.242394321     8.131397150    -0.277871849
 C       -1.442727559     9.227599675    -0.625922519
 C       -1.962968984    10.519938771    -0.622580064
 C       -3.294563202    10.746882913    -0.257270780
 C       -4.095525997     9.652872478     0.092528904
 C       -3.575113265     8.360296417     0.077007218
Si       -4.022212246    12.436365315    -0.238922492
 C       -5.227562717    12.612854870     1.126693189
 C       -5.137761945    11.940664771     2.281947527
 C       -6.090020519    12.066482181     3.386785894
 C       -5.877150474    11.301731353     4.544779614
 C       -6.746186890    11.381634276     5.619661998
 C       -7.886577631    12.207698150     5.548442557
 C       -8.102081143    12.974336007     4.394139435
 C       -7.197984795    12.914731516     3.338232479
 N       -8.733219283    12.241725219     6.685647306
 C       -9.351884138    10.947906649     7.040020734
 C       -9.658859431    13.381408905     6.768416288
 C      -10.675810172    10.603986625     6.335000841
 C      -10.557615055    10.381993088     4.815404928
 N       -9.983261259     9.092429945     4.400827111
 C      -10.519777693     7.923521461     4.953409851
 C      -11.904704277     7.852524495     5.225851673
 C      -12.452994022     6.704529665     5.772323077
 C      -11.665516778     5.571156474     6.023164189
 C      -10.301666050     5.633150983     5.725008081
 C       -9.730142221     6.781740010     5.193915394
 C       -8.540830689     9.120431980     4.129784558
 C      -12.297361267     4.385229204     6.601908286
 C      -11.648036025     3.247484093     6.884389586
Si      -12.435947054     1.765277649     7.607332683
 C      -13.863103430     2.198242395     8.684756790
 C      -13.842544821     3.392184128     9.418155031
 C      -14.913952621     3.735242146    10.238252480
 C      -16.024838266     2.889678719    10.357783498
 C      -16.038473284     1.695453194     9.632167427
 C      -14.969225655     1.351173657     8.805816001
 C      -17.123250183     3.292620000    11.229720665
 C      -18.244170351     2.578611105    11.428540981
 C      -19.342643285     2.981496194    12.300478331
 C      -19.330286185     4.175240543    13.026525465
 C      -20.402679826     4.521226458    13.848694142
 C      -21.509869518     3.675496302    13.967430676
 C      -21.524410911     2.477178478    13.240726722
 C      -20.455286191     2.137320948    12.416640253
Si      -22.933362960     4.116955855    15.047971540
 C      -22.522005505     5.544146427    16.176644922
 C      -24.424191657     4.602551437    13.968697130
 C      -23.401726979     2.581731381    16.071392256
 C      -13.002723851     0.620753243     6.196904941
 C      -11.138818891     0.847042103     8.653271534
 C       -2.661450180    13.749235732    -0.039354401
 C       -4.927213472    12.735774717    -1.884345621
 C       -0.620475529    -0.916732431    -1.548152372
 C       -0.655288556    -0.908017915     1.539552122
 H        1.176813823     2.681986922    -0.638974396
 H        0.254319579     4.927960722    -0.628993058
 H       -3.568470201     3.398490372     0.624572609
 H       -2.686470596     1.132343627     0.631327828
 H       -3.364205272     5.699548521     0.308868687
 H       -0.599877565     6.764939474    -0.590508543
 H       -0.402803617     9.070959787    -0.905920317
 H       -1.293320354    11.334806835    -0.910446157
 H       -5.144986872     9.770941895     0.384560013
 H       -4.219281235     7.525774011     0.348310601
 H       -6.037673426    13.333579788     0.942346053
 H       -4.330441894    11.222733575     2.489180681
 H       -5.006102220    10.647577156     4.607013792
 H       -6.547360475    10.819348675     6.530189663
 H       -8.967637853    13.625041716     4.315462173
 H       -7.374307850    13.530593347     2.455574292
 H      -10.136851326    13.380365274     7.763784299
 H      -10.449236604    13.385973958     6.001938440
 H       -9.082055406    14.320317389     6.686012135
 H       -8.265548543    10.070520012     3.634439487
 H       -8.286471722     8.309071475     3.423130438
 H       -7.918561592     9.018153054     5.033949286
 H      -12.546690563     8.699700762     5.004698440
 H      -13.520727934     6.678034060     5.994880363
 H       -9.666594360     4.765637948     5.910580446
 H       -8.665947940     6.789172973     4.983397762
 H      -13.371953784     4.518073762     6.793262262
 H      -10.574097792     3.136060901     6.672241134
 H      -12.998567225     4.088689034     9.367666516
 H      -14.883633922     4.670191827    10.794487037
 H      -16.888869188     1.020564484     9.707501257
 H      -15.037671481     0.404195552     8.263654768
 H      -16.977238955     4.251405690    11.735961073
 H      -18.390168921     1.619732079    10.922717532
 H      -18.478481026     4.849080095    12.955092096
 H      -20.335858657     5.468443795    14.390994545
 H      -22.362599562     1.776694868    13.294795194
 H      -20.485568904     1.203241556    11.858942429
 H       -8.616386032    10.131063051     6.865192534
 H       -9.524764225    10.975414744     8.143148823
 H      -11.096301797     9.692969672     6.811864006
 H      -11.422166994    11.398094622     6.524263789
 H      -11.572852300    10.453163982     4.354392350
 H       -9.963010002    11.203691998     4.354590713
 H        2.263242373    -1.029240149     0.051709585
 H        2.260506312     0.552839159     0.871653682
 H        2.275610286     0.469342267    -0.911134510
 H      -23.367453363     5.776475296    16.848630752
 H      -22.287598407     6.461086810    15.608133068
 H      -21.648906034     5.307966201    16.811767900
 H      -25.231403378     4.920271380    14.690354740
 C      -24.117803949     5.792695168    13.041010008
 C      -24.975342425     3.444438159    13.117957993
 H      -23.680974170     1.784658920    15.322298996
 C      -22.223922815     2.049055861    16.907401187
 C      -24.612411595     2.804920797    16.994954952
 H      -13.426126681    -0.300449127     6.691599508
 C      -14.110927012     1.257137483     5.338974214
 C      -11.851796155     0.177716450     5.275953562
 H      -10.294301440     0.592771104     7.949907857
 C      -10.572142467     1.726766107     9.782286977
 C      -11.668402066    -0.464451013     9.258832510
 H       -1.967814408    13.615920394    -0.919440274
 C       -3.199231948    15.190945632    -0.073753849
 C       -1.843947965    13.552988447     1.250034078
 H       -5.343015578    13.782950559    -1.826187585
 C       -3.996970979    12.657367116    -3.107228813
 C       -6.104133369    11.764825246    -2.087707965
 H       -0.139044399    -1.936592700    -1.513501443
 C       -2.147194584    -1.110612741    -1.574923552
 C       -0.187479594    -0.228637382    -2.855691239
 H       -1.779882459    -0.912816469     1.441176289
 C       -0.185817476    -2.370585271     1.635673716
 C       -0.300373968    -0.180190825     2.848848463
 H      -23.792470031     6.692849995    13.578212391
 H      -25.021351639     6.077842984    12.483255289
 H      -23.351833562     5.560158769    12.287175375
 H      -25.294559314     2.579357500    13.712777176
 H      -24.258319624     3.090319984    12.363936689
 H      -25.863631546     3.777582274    12.561510367
 H      -21.335576525     1.813045010    16.304029716
 H      -22.510446039     1.114196993    17.409879660
 H      -21.911007700     2.742334030    17.699354357
 H      -25.516891811     3.119067494    16.458252691
 H      -24.418504292     3.543031891    17.784508413
 H      -24.870284677     1.867092497    17.508322529
 H      -14.998017797     1.550287496     5.917376936
 H      -14.459818236     0.542143376     4.580922281
 H      -13.767516210     2.146074267     4.789624843
 H      -11.051979311    -0.356997364     5.803609952
 H      -11.393724968     1.015861953     4.731963212
 H      -12.229484070    -0.514625475     4.509824165
 H      -10.120986882     2.661485182     9.422199345
 H       -9.778551055     1.187514699    10.318520321
 H      -11.327005018     1.991552759    10.536683812
 H      -12.004265885    -1.187960691     8.505186554
 H      -12.497102512    -0.306538290     9.963971620
 H      -10.872351094    -0.963825209     9.829897603
 H       -3.728783776    15.437188273    -1.002869609
 H       -2.365358826    15.904154106     0.001013232
 H       -3.871014269    15.417073120     0.766064241
 H       -1.379033629    12.560404651     1.327519201
 H       -2.439891958    13.709116598     2.161089794
 H       -1.022171149    14.281822210     1.290904232
 H       -3.178073377    13.387553194    -3.080263345
 H       -4.564382987    12.866970487    -4.025700071
 H       -3.552443465    11.660977606    -3.243982787
 H       -6.847233435    11.802870372    -1.279645218
 H       -5.781610184    10.718815582    -2.193692088
 H       -6.642519463    12.013891975    -3.013305256
 H       -2.529052396    -1.681625965    -0.719206746
 H       -2.438254475    -1.674445232    -2.473261978
 H       -2.697855500    -0.160274380    -1.619602652
 H        0.900564352    -0.123776435    -2.954411325
 H       -0.631162155     0.769727939    -2.979964096
 H       -0.518185306    -0.821417258    -3.720642852
 H       -0.465352172    -2.975392280     0.763372352
 H       -0.648678327    -2.856580084     2.506943934
 H        0.899543124    -2.463981814     1.773625773
 H       -0.654072266     0.860398750     2.876658366
 H        0.778230830    -0.168074961     3.054518282
 H       -0.772177952    -0.687720264     3.702272142

