187   

Si        0.000000000     0.000000000     0.000000000
 C        1.866257692     0.000000000     0.000000000
 C       -0.669804748     1.713324698     0.000000000
 C        0.074538358     2.735882146    -0.598119830
 C       -0.407306850     4.042227320    -0.613205106
 C       -1.639659541     4.361496839    -0.033322099
 C       -2.388962297     3.334377270     0.551906438
 C       -1.916984178     2.022918446     0.556354088
 C       -2.159781351     5.727035966    -0.040481852
 C       -1.494832379     6.752610990    -0.598533547
 C       -1.927005824     8.141635193    -0.656547366
 C       -1.075413608     9.057761872    -1.289919970
 C       -1.420995051    10.400552054    -1.383808452
 C       -2.612224101    10.869981488    -0.814941209
 C       -3.453265097     9.961845654    -0.164222421
 C       -3.110630674     8.610401700    -0.083414431
Si       -3.021061191    12.655660882    -0.968310566
 C       -4.057844853    13.193651679     0.440714400
 C       -3.794243883    14.274857110     1.185192403
 C       -4.607811887    14.725078725     2.316262401
 C       -4.203853938    15.880153003     3.002807538
 C       -4.933664673    16.355116593     4.081797744
 C       -6.118124310    15.705911526     4.459093394
 C       -6.544225242    14.571090813     3.762048259
 C       -5.791955704    14.088518741     2.695543188
 N       -6.799967084    16.277253262     5.590611323
 C       -6.427083326    15.591188146     6.849869451
 C       -8.255886004    16.397400158     5.394088173
 C       -7.034251969    14.188687625     7.036983625
 C       -6.030356714    13.109539501     7.486669453
 N       -5.176712745    12.492503704     6.461560271
 C       -5.759779996    11.704673296     5.454428002
 C       -7.150699145    11.521415584     5.340526439
 C       -7.672454914    10.732495424     4.326044667
 C       -6.841003710     9.988148095     3.480724352
 C       -5.455790346    10.135032730     3.618377607
 C       -4.920700848    10.994358356     4.566138780
 C       -4.026588271    13.312374002     6.044277741
 C       -7.472999258     9.183067106     2.437049834
 C       -6.840172829     8.411961723     1.542034000
Si       -7.743702805     7.445373307     0.276757548
 C       -7.215393883     5.685153852     0.219873590
 C       -6.469211945     5.107921972     1.251955488
 C       -6.081062761     3.768881654     1.183469542
 C       -6.453755408     2.974275915     0.096668078
 C       -7.207456261     3.554204329    -0.933557390
 C       -7.578589971     4.893733142    -0.878117630
 C       -6.081062769     1.570390213    -0.034558927
 C       -5.364406227     0.865297319     0.856904218
 C       -5.011056194    -0.541364291     0.689110828
 C       -5.395926767    -1.283500765    -0.432402050
 C       -5.040199271    -2.624888347    -0.558462677
 C       -4.280041604    -3.259716670     0.432582715
 C       -3.894462414    -2.517872496     1.554619124
 C       -4.258634034    -1.178120426     1.682743642
Si       -3.834299148    -5.036082856     0.220656986
 C       -5.392116710    -6.043567747     0.022992988
 C       -2.746286424    -5.291249823    -1.321787239
 C       -2.844244587    -5.643068341     1.731038753
 C       -9.616985747     7.488655241     0.626273073
 C       -7.449498739     8.239028331    -1.430134018
 C       -1.472884966    13.760152467    -1.067657799
 C       -4.017730603    12.866856909    -2.577249605
 C       -0.629448881    -0.875122135    -1.568414882
 C       -0.653294861    -0.942538680     1.516686209
 H        1.046956344     2.553593040    -1.063691199
 H        0.193971140     4.817288740    -1.085663921
 H       -3.361068582     3.556813474     0.990482200
 H       -2.556789514     1.255310650     1.003225794
 H       -3.135016697     5.865656409     0.431227231
 H       -0.520863089     6.575273959    -1.070794221
 H       -0.138858642     8.715361640    -1.725518950
 H       -0.722640193    11.061023098    -1.907180289
 H       -4.392103483    10.274499106     0.304817806
 H       -3.773424891     7.916252269     0.431582489
 H       -4.936526364    12.559278663     0.640387585
 H       -2.924754612    14.922869646     1.007915473
 H       -3.298756875    16.404095739     2.697361889
 H       -4.614642942    17.241932092     4.628207852
 H       -7.462864514    14.060208281     4.041726279
 H       -6.130571965    13.195823527     2.166835484
 H       -8.674512372    16.985647863     6.228212713
 H       -8.800380591    15.443766401     5.332447528
 H       -8.441853852    16.962050111     4.463250717
 H       -3.679958368    13.945688298     6.875564831
 H       -4.254200065    13.962402119     5.179960584
 H       -3.185167645    12.650847280     5.769503552
 H       -7.836169137    11.997373155     6.033033946
 H       -8.755655006    10.662507275     4.219285951
 H       -4.783191894     9.577239912     2.964496355
 H       -3.841425380    11.105570966     4.635437604
 H       -8.570257365     9.273574434     2.459776926
 H       -5.744878527     8.326288927     1.521883862
 H       -6.162498235     5.680881747     2.132846725
 H       -5.496205950     3.342232024     1.996242262
 H       -7.502017202     2.953703187    -1.792056071
 H       -8.153135426     5.293110579    -1.718784268
 H       -6.434253175     1.095342009    -0.956098486
 H       -5.006507532     1.327110922     1.780555026
 H       -5.982910008    -0.816323737    -1.221217809
 H       -5.383116897    -3.152669757    -1.453392919
 H       -3.294753037    -2.953334648     2.359189593
 H       -3.952665157    -0.624363722     2.569174280
 H       -5.316348876    15.550675988     6.891910603
 H       -6.741625014    16.259446849     7.682585090
 H       -7.854887597    14.239494876     7.777184840
 H       -7.516425330    13.869252436     6.092043471
 H       -5.361937922    13.523506739     8.276774177
 H       -6.592954782    12.276214080     7.976866477
 H        2.263589015    -1.029867542     0.031927557
 H        2.260068349     0.536439463     0.882151192
 H        2.278488463     0.488041220    -0.899728629
 H       -5.163545663    -7.118300221    -0.085179394
 H       -5.970538457    -5.731458333    -0.863958870
 H       -6.050029239    -5.929524891     0.904001955
 H       -2.610445757    -6.409706544    -1.398846023
 C       -3.398338437    -4.805068269    -2.628777205
 C       -1.354093906    -4.647833255    -1.206174212
 H       -2.018634255    -4.886916115     1.880790179
 C       -3.686311889    -5.695065416     3.019438627
 C       -2.186740560    -7.020296939     1.525647675
 H       -9.886724214     8.577822399     0.743699006
 C      -10.475379760     6.914282413    -0.514615694
 C       -9.983994481     6.756211282     1.930040659
 H       -8.181572171     7.736498353    -2.126721785
 C       -7.743362220     9.749440318    -1.437481056
 C       -6.036571674     7.996630709    -1.984439054
 H       -1.855442407    14.813965471    -0.919837378
 C       -0.465731748    13.459437579     0.057357520
 C       -0.736753898    13.734213644    -2.418811027
 H       -3.322181233    12.546148687    -3.406270723
 C       -5.265295620    11.968801340    -2.629943946
 C       -4.440379940    14.323070832    -2.837602122
 H       -0.283588034    -1.945916599    -1.485891618
 C       -2.162466788    -0.866269804    -1.681539031
 C       -0.039066771    -0.284528425    -2.862096040
 H       -1.768963918    -1.031192620     1.356306690
 C       -0.085342825    -2.366031621     1.656270443
 C       -0.421417642    -0.186118418     2.837323449
 H       -4.393535799    -5.230124520    -2.808467901
 H       -2.780086510    -5.102322761    -3.488389511
 H       -3.482702481    -3.709860479    -2.677869496
 H       -0.775916767    -5.005082329    -0.344810636
 H       -1.404177610    -3.549219248    -1.149790938
 H       -0.754301958    -4.882103419    -2.097299488
 H       -4.202882396    -4.754453351     3.252692639
 H       -3.041206034    -5.914800843     3.882159872
 H       -4.447780536    -6.486620868     2.995282907
 H       -1.485536643    -7.047182051     0.681485143
 H       -2.916566752    -7.827058139     1.378230920
 H       -1.603149468    -7.294117848     2.416703803
 H      -10.343370781     7.440158102    -1.468520553
 H      -11.542250204     7.004379438    -0.262309134
 H      -10.294307942     5.844585350    -0.689813076
 H       -9.442417850     7.124322153     2.812112725
 H       -9.811168520     5.671799588     1.870612524
 H      -11.053439077     6.885553067     2.148043502
 H       -8.773729969     9.994505319    -1.150700527
 H       -7.603197214    10.153803480    -2.450401162
 H       -7.069729536    10.318683638    -0.779596539
 H       -5.746817772     6.936536781    -2.004645377
 H       -5.258328084     8.539345918    -1.428641541
 H       -5.971251128     8.349289577    -3.023363091
 H       -0.901550563    13.523883931     1.064527559
 H        0.359935560    14.184166697     0.030795612
 H       -0.005957992    12.465182544    -0.033036291
 H       -1.376481849    14.008526074    -3.267745487
 H       -0.280204438    12.762600194    -2.648733630
 H        0.087811579    14.462214423    -2.409000004
 H       -5.042919116    10.902032687    -2.476636368
 H       -5.738567079    12.041275136    -3.619386418
 H       -6.031737628    12.260126256    -1.898485499
 H       -3.596077010    15.022264542    -2.888892507
 H       -5.142289475    14.705865302    -2.082805059
 H       -4.958348063    14.397018929    -3.804543547
 H       -2.670610435    -1.329603428    -0.822506318
 H       -2.481433138    -1.435009223    -2.565931909
 H       -2.577882451     0.145332914    -1.798308327
 H        1.055645073    -0.338803089    -2.905999095
 H       -0.330635873     0.763078319    -3.024128369
 H       -0.410481328    -0.843724221    -3.732773754
 H       -0.256674645    -2.991333833     0.770273421
 H       -0.572841846    -2.883245760     2.495338647
 H        0.991181540    -2.377386540     1.869824592
 H       -0.850687198     0.825659057     2.842042866
 H        0.641674095    -0.090415289     3.094361815
 H       -0.892814745    -0.726569476     3.670023985

