187   

Si        0.000000000     0.000000000     0.000000000
 C        1.865359016     0.000000000     0.000000000
 C       -0.658530069     1.719918882     0.000000000
 C        0.131746735     2.780825397     0.455224814
 C       -0.363047313     4.084227114     0.456844895
 C       -1.658952726     4.357406168     0.010693155
 C       -2.451430707     3.293395156    -0.439294517
 C       -1.959865911     1.990410349    -0.442652088
 C       -2.214183048     5.706942687    -0.003704393
 C       -1.552873572     6.804385857     0.401350572
 C       -2.096941215     8.157458023     0.391640617
 C       -3.390028333     8.448067550    -0.050955880
 C       -3.867651572     9.758422257    -0.041908012
 C       -3.055208867    10.806385239     0.400814072
 C       -1.758232663    10.519015388     0.846929786
 C       -1.289249859     9.208467361     0.847811735
Si       -3.645489369    12.546572209     0.428878174
 C       -2.257188082    13.623585953    -0.082906635
 C       -1.843611889    14.711946187     0.578279340
 C       -0.729269981    15.564112790     0.154431544
 C       -0.402596619    16.676622169     0.944723368
 C        0.641670844    17.516985874     0.591825164
 C        1.404316807    17.241823414    -0.555793364
 C        1.109878031    16.114360890    -1.328708727
 C        0.065047301    15.272640222    -0.957659955
 N        2.463036793    18.165445350    -0.841867586
 C        1.963026092    19.385002335    -1.519293266
 C        3.626935990    17.565511719    -1.517938510
 C        1.562769387    19.190625602    -2.994722290
 C        0.243491522    19.888340753    -3.377056825
 N       -0.992597355    19.132872395    -3.083356765
 C       -1.036407171    17.797062574    -3.530081796
 C       -0.371755790    17.428786839    -4.719757721
 C       -0.408551974    16.118122595    -5.167827194
 C       -1.134218065    15.135977422    -4.480483197
 C       -1.831467509    15.512967836    -3.329559140
 C       -1.811438553    16.823560119    -2.871847024
 C       -1.514466675    19.381903655    -1.727802885
 C       -1.138416677    13.767571966    -4.998442150
 C       -1.795027012    12.750105736    -4.425832546
Si       -1.806770815    11.036618568    -5.064903070
 C       -0.242370448    10.647492626    -5.950119808
 C        0.966057037    11.163912776    -5.461243568
 C        2.165407279    10.886270001    -6.110212070
 C        2.190901387    10.078702853    -7.255394353
 C        0.985803624     9.560264102    -7.736138620
 C       -0.218695448     9.839915708    -7.090512208
 C        3.473210619     9.816473277    -7.900396089
 C        3.636350185     9.065238457    -9.002567968
 C        4.918827220     8.803237494    -9.647280483
 C        6.124180226     9.321594669    -9.166706352
 C        7.328137223     9.045640626    -9.814568487
 C        7.352882712     8.239252860   -10.956702411
 C        6.145338353     7.718345947   -11.440968351
 C        4.944614983     7.999829034   -10.795278037
Si        8.933804555     7.866172609   -11.822531134
 C       10.411357576     8.299325583   -10.769314654
 C        8.956752368     6.012627705   -12.256057028
 C        9.018751878     8.865168906   -13.440605688
 C       -1.941665882     9.890377440    -3.550172941
 C       -3.314889802    10.773205787    -6.188226862
 C       -5.134084218    12.828367796    -0.718782005
 C       -4.208084983    12.953816275     2.201705400
 C       -0.653550857    -0.907814078    -1.540178928
 C       -0.632292310    -0.909997587     1.546634230
 H        1.153514634     2.630522230     0.815295365
 H        0.274845719     4.892047513     0.811634316
 H       -3.463713073     3.483698848    -0.790597052
 H       -2.624374432     1.200898593    -0.804015800
 H       -3.239573573     5.778050452    -0.376733958
 H       -0.526509514     6.728402612     0.773812560
 H       -4.037369825     7.649427182    -0.407705478
 H       -4.888745539     9.924523175    -0.395463860
 H       -1.079005475    11.302035511     1.201374626
 H       -0.281436550     9.000602187     1.203030669
 H       -1.760940376    13.295700924    -1.012832335
 H       -2.320220354    15.061757059     1.503596720
 H       -0.981130534    16.891812820     1.842500002
 H        0.895969639    18.378617598     1.206619241
 H        1.690399553    15.885226955    -2.218953652
 H       -0.140028307    14.387222783    -1.564221136
 H        4.452524041    18.298009300    -1.503232382
 H        3.453228060    17.259783535    -2.560624818
 H        3.959452418    16.681763253    -0.945331132
 H       -1.393849117    20.444054617    -1.462292141
 H       -1.026940516    18.767723555    -0.949583666
 H       -2.599642668    19.171137251    -1.717244961
 H        0.172482611    18.171954381    -5.294568233
 H        0.128894573    15.853298516    -6.079294306
 H       -2.422790940    14.776112949    -2.781276515
 H       -2.375158396    17.071673158    -1.977185394
 H       -0.540577780    13.649035771    -5.912740844
 H       -2.389496483    12.897939920    -3.510431530
 H        1.006158304    11.798573193    -4.568670889
 H        3.093231103    11.299757711    -5.719994876
 H        0.977701065     8.929708266    -8.623025117
 H       -1.128388254     9.405477623    -7.513381067
 H        4.333676358    10.285978871    -7.414619739
 H        2.775984457     8.595171306    -9.487719131
 H        6.132751149     9.948645198    -8.277072687
 H        8.238237892     9.479571670    -9.391321159
 H        6.103482594     7.081984846   -12.329386718
 H        4.016848770     7.587556944   -11.187353988
 H        1.104378540    19.772260537    -0.927582209
 H        2.765114913    20.152000040    -1.436678960
 H        2.371820441    19.558739439    -3.651624486
 H        1.482281437    18.105874385    -3.218226714
 H        0.178246110    20.884937639    -2.888503799
 H        0.239234973    20.095769292    -4.474832853
 H        2.264138117    -1.028153708    -0.064822642
 H        2.277077496     0.458602590     0.915851902
 H        2.258835564     0.563972504    -0.865612412
 H       11.354748936     8.032960127   -11.278469485
 H       10.386545152     7.752211780    -9.809320921
 H       10.449891014     9.378836258   -10.541363271
 H        8.069958937     5.842781617   -12.933692995
 C       10.220969888     5.575428437   -13.017123665
 C        8.780947693     5.115175926   -11.017762098
 H       10.027101722     8.632675294   -13.890276901
 C        7.938676785     8.472531438   -14.464455385
 C        8.941504402    10.384162886   -13.200753449
 H       -2.875586601    10.206854188    -2.999627462
 C       -2.084469529     8.402414813    -3.908777349
 C       -0.748491354    10.061319654    -2.593787634
 H       -3.253849938     9.704159743    -6.544753169
 C       -4.660143923    10.950445647    -5.460916075
 C       -3.291391853    11.692590138    -7.422704979
 H       -5.954776841    12.165767639    -0.316237677
 C       -5.638496331    14.283209645    -0.687363978
 C       -4.879534463    12.430396339    -2.181320967
 H       -4.458182230    14.053897280     2.204860696
 C       -5.467106049    12.178398586     2.628337887
 C       -3.103553372    12.710428583     3.246038510
 H       -1.778587006    -0.905859175    -1.447249088
 C       -0.287243041    -0.186022012    -2.849640552
 C       -0.192701711    -2.373588044    -1.630493006
 H       -0.168435766    -1.937831311     1.510143752
 C       -0.188099321    -0.232087727     2.855733855
 C       -2.162368617    -1.076938041     1.571506291
 H       10.376267014     6.125040953   -13.954487418
 H       10.144182139     4.513608009   -13.293046787
 H       11.136094520     5.670710892   -12.417757353
 H        7.863706500     5.332359734   -10.451568567
 H        9.624360070     5.179202261   -10.317565457
 H        8.711114590     4.061267559   -11.322424717
 H        7.977659122     7.415358049   -14.755870470
 H        8.071955423     9.050296425   -15.390745731
 H        6.919652440     8.688962371   -14.113636927
 H        9.732506282    10.762824930   -12.540766497
 H        7.976450481    10.701138095   -12.779606850
 H        9.052712335    10.922014589   -14.153203587
 H       -2.969099862     8.182351810    -4.518129140
 H       -2.186168617     7.805788865    -2.988836902
 H       -1.206191798     8.001134375    -4.433406434
 H       -0.613283455    11.092582136    -2.240787117
 H        0.202096568     9.723450154    -3.027546801
 H       -0.907377334     9.450378019    -1.690402603
 H       -4.789770192    10.262412230    -4.615298276
 H       -5.490232765    10.746452270    -6.152016657
 H       -4.813446414    11.974063104    -5.091357746
 H       -2.383889726    11.584155080    -8.032402979
 H       -3.387740329    12.757004856    -7.163008848
 H       -4.136274420    11.459073681    -8.085200750
 H       -5.948012058    14.617854586     0.310525943
 H       -6.523832551    14.388223644    -1.330897840
 H       -4.897569963    15.002763854    -1.065543578
 H       -4.501813243    11.405451622    -2.298830764
 H       -4.178421802    13.109548194    -2.688274282
 H       -5.816881876    12.478437437    -2.754178575
 H       -6.342046152    12.386119189     1.999460259
 H       -5.753649849    12.460471683     3.652129579
 H       -5.315931224    11.089629387     2.643932753
 H       -2.173015841    13.256178735     3.039296664
 H       -2.845631503    11.646454469     3.351230017
 H       -3.442128162    13.042824949     4.237564482
 H       -0.631331270     0.857712846    -2.881672071
 H       -0.759332453    -0.691383279    -3.704096063
 H        0.792453176    -0.183485424    -3.050584037
 H       -0.483755409    -2.975601839    -0.760081637
 H        0.893181317    -2.474228529    -1.759032201
 H       -0.651046177    -2.857453317    -2.505294837
 H        0.901654272    -0.147865857     2.955529642
 H       -0.530644598    -0.820230632     3.719255371
 H       -0.613516442     0.773997426     2.981335903
 H       -2.553083442    -1.640510081     0.714821199
 H       -2.696186033    -0.116926947     1.614884879
 H       -2.464826354    -1.635916406     2.469014006

