187   

Si        0.000000000     0.000000000     0.000000000
 C        1.865169811     0.000000000     0.000000000
 C       -0.675805934     1.712447186     0.000000000
 C        0.108950822     2.795090969    -0.409921927
 C       -0.410661581     4.089384377    -0.406936134
 C       -1.725500741     4.330487064    -0.000199567
 C       -2.512187810     3.244028574     0.405054762
 C       -1.996539137     1.951022237     0.403196357
 C       -2.311945774     5.666365008     0.019601606
 C       -1.670291475     6.790245834    -0.342238127
 C       -2.258894743     8.125393600    -0.321621179
 C       -3.575177370     8.361448009     0.086260935
 C       -4.098430663     9.653380144     0.090771523
 C       -3.311737188    10.739576644    -0.308337237
 C       -1.993485695    10.507108353    -0.718432251
 C       -1.476296741     9.213858461    -0.727832095
Si       -4.002276068    12.444568506    -0.302387879
 C       -2.644603154    13.665933026    -0.372450980
 C       -2.560865060    14.698788680    -1.221047346
 C       -1.452501107    15.654944927    -1.242156096
 C       -1.473341069    16.698365356    -2.177622502
 C       -0.448603967    17.629358795    -2.238561977
 C        0.674288271    17.514711435    -1.391207743
 C        0.696888393    16.463657246    -0.453593305
 C       -0.361652547    15.569051825    -0.372260777
 N        1.714633481    18.459239144    -1.452555037
 C        1.921154184    19.158084570    -2.733001901
 C        2.981509306    18.095657942    -0.793986051
 C        2.347634037    18.219179109    -3.872806708
 C        2.417328841    18.985974865    -5.203216761
 N        2.881262497    18.155022484    -6.327681442
 C        4.196235117    17.658644902    -6.265499018
 C        5.191198283    18.356823538    -5.548224765
 C        6.486571622    17.868437574    -5.486598850
 C        6.857477454    16.704549325    -6.174104775
 C        5.878950774    16.031476262    -6.910787827
 C        4.571444259    16.495654601    -6.966195126
 C        1.844264443    17.227489990    -6.812677284
 C        8.239481050    16.233525123    -6.073911818
 C        8.707788299    15.136792904    -6.685253982
Si       10.435324638    14.551716925    -6.557452269
 C       11.190854639    15.005662954    -4.942779838
 C       10.398172962    15.006353335    -3.786944445
 C       10.948363412    15.346440000    -2.554257073
 C       12.304396894    15.681656944    -2.442098536
 C       13.093928033    15.672072587    -3.595111805
 C       12.544988555    15.336068255    -4.832321669
 C       12.834311402    16.030978258    -1.128209362
 C       14.110261721    16.374670006    -0.883703553
 C       14.639476975    16.723889594     0.430559996
 C       13.849704750    16.733330502     1.583066323
 C       14.397058416    17.073682751     2.820094622
 C       15.750337397    17.407501455     2.931718803
 C       16.544682877    17.398686485     1.776988102
 C       15.994497762    17.063537908     0.543101370
Si       16.488135561    17.858983922     4.556834384
 C       15.347018943    17.434374728     5.970062920
 C       18.137898235    16.927295594     4.741058782
 C       16.841140009    19.729023471     4.596529867
 C       10.441980512    12.656759315    -6.724536289
 C       11.441189051    15.293749996    -7.991906350
 C       -5.183897901    12.647503076    -1.778699587
 C       -4.980696811    12.717960907     1.306884869
 C       -0.623645720    -0.914298557    -1.548435639
 C       -0.651396641    -0.913036722     1.538501754
 H        1.144485460     2.669076541    -0.737895885
 H        0.221901298     4.915236144    -0.727301696
 H       -3.539241597     3.409664093     0.724818354
 H       -2.658249556     1.143492207     0.728630300
 H       -3.350641758     5.704301296     0.360907658
 H       -0.631758792     6.753107814    -0.683889947
 H       -4.204761590     7.532925881     0.404940605
 H       -5.134241937     9.776049349     0.419135632
 H       -1.335791615    11.319570556    -1.044320479
 H       -0.450506296     9.050885066    -1.053062493
 H       -1.862063857    13.488987212     0.384531695
 H       -3.325849465    14.908448267    -1.979958736
 H       -2.316168123    16.791245336    -2.863310486
 H       -0.518069426    18.444159930    -2.952824836
 H        1.535303010    16.344163505     0.225340770
 H       -0.325271567    14.775319298     0.376226714
 H        3.733608630    18.886454124    -0.953223085
 H        3.402355543    17.141586592    -1.152378618
 H        2.816057973    18.028138013     0.296641898
 H        0.851803694    17.705532366    -6.762153479
 H        1.801705539    16.283083878    -6.245058823
 H        2.033932975    16.998266996    -7.877090046
 H        4.949795172    19.279620072    -5.029372888
 H        7.232579266    18.411133087    -4.903945043
 H        6.139528342    15.123264503    -7.456549708
 H        3.844627552    15.942160203    -7.551845182
 H        8.866932809    16.869156526    -5.432583792
 H        8.061928197    14.522371217    -7.330237865
 H        9.333589797    14.749801986    -3.814217842
 H       10.315959160    15.347919592    -1.668615895
 H       14.150112848    15.927840010    -3.535654714
 H       13.212766479    15.345959965    -5.698019931
 H       12.102368710    15.995453395    -0.315950388
 H       14.842429737    16.409800250    -1.695755604
 H       12.794416069    16.473520115     1.524222371
 H       13.729055208    17.063546213     3.685761861
 H       17.608774438    17.650242094     1.803671674
 H       16.626889993    17.063900297    -0.342685185
 H        0.982351190    19.697618848    -2.995365289
 H        2.686218620    19.952578733    -2.576747924
 H        3.327945210    17.757798004    -3.644250862
 H        1.639751969    17.371520768    -3.956170827
 H        1.417126756    19.399814324    -5.466458851
 H        3.090461785    19.869345487    -5.115002053
 H        2.263120855    -1.028603723     0.062609485
 H        2.259922604     0.562221805     0.865970885
 H        2.276034446     0.460138123    -0.915552906
 H       15.814113350    17.669709880     6.943141028
 H       15.102873869    16.356476444     5.971666975
 H       14.397765872    17.995194684     5.912760711
 H       18.785793835    17.273446095     3.883810871
 C       18.880216521    17.245652539     6.051109973
 C       17.969893542    15.402078356     4.617387437
 H       17.235211719    19.942535327     5.632105122
 C       17.905614971    20.178857306     3.579901057
 C       15.570723711    20.573040607     4.385402509
 H        9.981546935    12.430876334    -7.729388825
 C       11.856971429    12.053159980    -6.699917336
 C        9.587187721    11.972350604    -5.642741061
 H       12.483729500    14.873994308    -7.893832946
 C       10.900313264    14.900432490    -9.378210313
 C       11.531128844    16.828150185    -7.909311318
 H       -5.487956815    13.734334730    -1.783918405
 C       -4.501703929    12.332325880    -3.122709022
 C       -6.462184580    11.798018614    -1.664025379
 H       -5.818926217    11.962767151     1.292882171
 C       -4.130800007    12.460040706     2.563872477
 C       -5.604542288    14.121286756     1.400897803
 H       -0.145466635    -1.935595701    -1.515511137
 C       -2.151178080    -1.102661905    -1.572386703
 C       -0.190562736    -0.226290782    -2.856001738
 H       -1.775997916    -0.921859291     1.440955805
 C       -0.176739402    -2.374215377     1.631600630
 C       -0.297748686    -0.186683603     2.848939288
 H       19.100910823    18.313418206     6.177699620
 H       19.850203145    16.727550530     6.067882624
 H       18.337285831    16.908018098     6.943843397
 H       17.495978264    15.093022180     3.674656633
 H       17.386465611    14.965988536     5.439040577
 H       18.953183804    14.911044434     4.641687007
 H       18.872268129    19.675703015     3.708308995
 H       18.103047726    21.254710643     3.695101496
 H       17.586460858    20.037031559     2.537747496
 H       14.784327167    20.371167724     5.123956983
 H       15.130957849    20.439995217     3.386471951
 H       15.809719824    21.642423442     4.476095344
 H       12.502960899    12.423672709    -7.506052463
 H       11.802991108    10.962220153    -6.827177553
 H       12.379075179    12.223979028    -5.747464284
 H        8.542508001    12.312022102    -5.631858572
 H        9.991683693    12.109066677    -4.629429155
 H        9.556840913    10.887402918    -5.816705283
 H       10.881536224    13.816393066    -9.547577851
 H       11.542411214    15.322025722   -10.165085618
 H        9.889422255    15.287872099    -9.568080458
 H       11.964057235    17.191386480    -6.967019616
 H       10.555096500    17.319747791    -8.034098572
 H       12.174802984    17.212853181    -8.712736859
 H       -3.595867220    12.925987799    -3.306575849
 H       -5.187193884    12.548061915    -3.954052633
 H       -4.223638749    11.272780750    -3.219995109
 H       -7.060959850    12.028987676    -0.773877966
 H       -6.259713397    10.717744865    -1.663759894
 H       -7.115519265    11.984844114    -2.528752935
 H       -3.684926073    11.455650546     2.589378143
 H       -4.756428106    12.540235545     3.464231580
 H       -3.317597473    13.188257666     2.688029163
 H       -6.294713042    14.347258703     0.577997278
 H       -4.852230913    14.922612009     1.433480267
 H       -6.190103379    14.211863589     2.326924514
 H       -2.532980982    -1.675253488    -0.717691839
 H       -2.446445743    -1.662200251    -2.471948401
 H       -2.698492496    -0.150110102    -1.611853881
 H        0.897620711    -0.124235479    -2.956014164
 H       -0.631953849     0.773289826    -2.978793896
 H       -0.523951217    -0.817556124    -3.720923993
 H       -0.453180093    -2.978008939     0.757654537
 H       -0.638691949    -2.863821299     2.501305037
 H        0.908818632    -2.463900850     1.770406842
 H       -0.655174035     0.852601124     2.879375194
 H        0.781092684    -0.170806494     3.053248409
 H       -0.766466028    -0.697850140     3.701859862

