187   

Si        0.000000000     0.000000000     0.000000000
 C        1.865243625     0.000000000     0.000000000
 C       -0.672374600     1.713840763     0.000000000
 C        0.110554383     2.790237053     0.429976233
 C       -0.403246172     4.086765765     0.428140353
 C       -1.710662667     4.336799023     0.002928702
 C       -2.495606102     3.256752919    -0.422211076
 C       -1.985478977     1.961318245    -0.421696971
 C       -2.289656727     5.676101573    -0.015930211
 C       -1.645760933     6.792655242     0.364465488
 C       -2.222462166     8.132789050     0.346527397
 C       -3.529409232     8.385476331    -0.078153151
 C       -4.040488034     9.683506559    -0.078824951
 C       -3.258220223    10.754712379     0.361344625
 C       -1.947365205    10.504097983     0.791223146
 C       -1.436575168     9.209750422     0.778716507
Si       -3.894945580    12.480445856     0.376101361
 C       -3.256470392    13.401279827     1.826144150
 C       -2.956925337    12.808573712     2.989490482
 C       -2.444975931    13.503907749     4.172459385
 C       -2.176333777    12.745867856     5.322549786
 C       -1.690589362    13.347036032     6.472577937
 C       -1.452264255    14.732818234     6.492594737
 C       -1.735617177    15.498710997     5.356662210
 C       -2.250099720    14.886554883     4.217033220
 N       -0.951061306    15.269210015     7.721085126
 C        0.479798014    14.942724903     7.926887975
 C       -1.248784252    16.695347987     7.941215931
 C        1.453746323    15.702714102     7.004714771
 C        2.588221082    14.820007646     6.449866072
 N        2.270353638    14.073858306     5.213564985
 C        1.680819461    14.821823949     4.173468410
 C        2.133781855    16.135791918     3.926079389
 C        1.571387061    16.891625820     2.910424269
 C        0.557709168    16.370704522     2.094501389
 C        0.139912603    15.055789087     2.315462629
 C        0.708688251    14.277802138     3.315366322
 C        1.698141124    12.741120961     5.467313769
 C       -0.001869273    17.212088591     1.035797442
 C       -0.970807533    16.816719970     0.200624681
Si       -1.710728436    17.815359531    -1.137906072
 C       -1.694607651    16.812445554    -2.679122853
 C       -0.562763186    16.046772761    -2.982867194
 C       -0.521277355    15.276413205    -4.144017102
 C       -1.608437257    15.250436221    -5.022446696
 C       -2.737704452    16.021256585    -4.717863624
 C       -2.779090525    16.799072181    -3.563250835
 C       -1.609580420    14.459540629    -6.248269682
 C       -0.593552927    13.680049181    -6.655453571
 C       -0.594024093    12.888789494    -7.881311292
 C       -1.676214235    12.868579984    -8.764787907
 C       -1.634593679    12.097496773    -9.926251362
 C       -0.505152191    11.331611769   -10.231632935
 C        0.581443438    11.349355489    -9.346542669
 C        0.534734726    12.116050326    -8.185574933
Si       -0.435788132    10.309035969   -11.760867875
 C       -1.777787237    10.785195050   -12.965715415
 C        1.276419297    10.538481191   -12.560480990
 C       -0.645021751     8.474149470   -11.299926793
 C       -3.488045476    18.267887211    -0.628583355
 C       -0.743974780    19.424538937    -1.434389890
 C       -3.226066810    13.343394156    -1.183973177
 C       -5.790944441    12.536604412     0.371764297
 C       -0.650669385    -0.912630592    -1.539014493
 C       -0.627178900    -0.913109357     1.547495488
 H        1.140433865     2.657782343     0.772843417
 H        0.228238359     4.907513650     0.763337728
 H       -3.516763792     3.429261595    -0.756987495
 H       -2.645228822     1.159006889    -0.763391313
 H       -3.322501310     5.723350678    -0.373083588
 H       -0.612349851     6.744637411     0.720308149
 H       -4.160842781     7.566992744    -0.418392523
 H       -5.066420445     9.819832307    -0.431148574
 H       -1.288770786    11.305973553     1.144080095
 H       -0.415052130     9.034149572     1.110517815
 H       -3.154595154    14.488147552     1.688800585
 H       -3.064917230    11.724910747     3.145970305
 H       -2.355868633    11.670424806     5.315915126
 H       -1.507909224    12.760765730     7.371120196
 H       -1.557118626    16.570433757     5.352159393
 H       -2.478883321    15.501552003     3.344836553
 H       -0.985635023    16.950642032     8.982229350
 H       -2.335341213    16.857486848     7.827525443
 H       -0.718643150    17.387857090     7.269992414
 H        2.248082016    12.245511814     6.283416839
 H        1.831465217    12.115424624     4.565449296
 H        0.625202700    12.761778609     5.727448628
 H        2.929922658    16.559325314     4.531071076
 H        1.930225921    17.907454650     2.744284623
 H       -0.638216851    14.614155612     1.686986211
 H        0.353877589    13.258733465     3.448183688
 H        0.453141804    18.209558475     0.990620338
 H       -1.409741861    15.805999157     0.275774471
 H        0.314669921    16.022680157    -2.326970579
 H        0.370289661    14.690642889    -4.361219120
 H       -3.592835781    16.017098886    -5.390725710
 H       -3.683714298    17.385277271    -3.381362615
 H       -2.523077479    14.540245194    -6.844241975
 H        0.319974428    13.598533027    -6.058470021
 H       -2.566338087    13.457791685    -8.552006899
 H       -2.511831065    12.122223610   -10.578517618
 H        1.490268891    10.770073668    -9.532739615
 H        1.387250977    12.114345035    -7.508693239
 H        0.713880601    15.155723197     8.993411894
 H        0.598644775    13.843913444     7.799629912
 H        0.893309661    16.155559447     6.159611872
 H        1.890581584    16.559691838     7.548597268
 H        3.475063383    15.458926761     6.220250562
 H        2.933921830    14.101026760     7.224001598
 H        2.263474904    -1.029460808    -0.042631602
 H        2.276476272     0.478134918     0.906067049
 H        2.259237303     0.545382515    -0.877029300
 H       -1.704234701    10.195462508   -13.896873850
 H       -1.700712593    11.852480591   -13.242136647
 H       -2.784690835    10.617687482   -12.545092671
 H        2.025740360    10.180462249   -11.795712515
 C        1.473563621     9.704148165   -13.838640497
 C        1.589105490    12.013455129   -12.871069263
 H       -0.640185175     7.911479510   -12.277902163
 C        0.498156651     7.924207497   -10.428307795
 C       -1.983536427     8.191861933   -10.593319411
 H       -3.911574179    18.867289916    -1.485136070
 C       -4.388446565    17.038173503    -0.414542620
 C       -3.539966989    19.142530721     0.637349163
 H       -0.701203503    19.950292032    -0.436786672
 C        0.700240379    19.171653038    -1.904081537
 C       -1.432010178    20.365522277    -2.439486996
 H       -3.473564503    14.438332726    -1.067963268
 C       -1.698236345    13.205048622    -1.301964873
 C       -3.869459221    12.850828753    -2.490596926
 H       -6.117683341    11.981213936    -0.554938033
 C       -6.402778237    11.828689122     1.594016250
 C       -6.355577874    13.966643345     0.289175478
 H       -1.775349434    -0.921622501    -1.441966223
 C       -0.296237488    -0.186265209    -2.849217333
 C       -0.176102570    -2.373840591    -1.632065259
 H       -0.153904258    -1.936695074     1.513365935
 C       -0.190475836    -0.228538723     2.855706134
 C       -2.155584156    -1.094034857     1.571268960
 H        1.338244552     8.626506878   -13.679624481
 H        2.498653490     9.832387775   -14.215840506
 H        0.806322715    10.008101186   -14.655979355
 H        1.520710486    12.666661209   -11.989303669
 H        0.937153149    12.436294768   -13.646856644
 H        2.618181456    12.110138276   -13.245468998
 H        1.484495603     8.002930815   -10.902534971
 H        0.338052091     6.854072207   -10.230869712
 H        0.556333775     8.410209238    -9.443936831
 H       -2.860251987     8.479078723   -11.187685261
 H       -2.064682797     8.691417972    -9.617005324
 H       -2.085679265     7.114917728   -10.396390128
 H       -4.433014894    16.372210324    -1.287626648
 H       -5.422309714    17.357564445    -0.220605478
 H       -4.085238137    16.435697841     0.453861460
 H       -2.998520213    20.091403170     0.534602726
 H       -3.147937565    18.630190195     1.528130641
 H       -4.580930070    19.410026342     0.868141293
 H        1.280159467    18.536331397    -1.220798819
 H        1.244946024    20.123560838    -1.977228799
 H        0.748500609    18.713412999    -2.902567523
 H       -2.434550814    20.682177609    -2.124966744
 H       -1.518399392    19.929707985    -3.444961084
 H       -0.842774238    21.286811463    -2.556258340
 H       -1.149952965    13.596220703    -0.435076094
 H       -1.340852833    13.774846607    -2.174808012
 H       -1.372459966    12.168333424    -1.466073660
 H       -4.955570118    12.995600819    -2.526580770
 H       -3.662818369    11.792509857    -2.700250185
 H       -3.456185247    13.414538675    -3.342954943
 H       -6.092682750    10.779442718     1.693570166
 H       -7.498935080    11.818513277     1.515941716
 H       -6.166344484    12.333112562     2.542200609
 H       -6.022566497    14.514785208    -0.602296680
 H       -6.109243596    14.574720320     1.170770560
 H       -7.453119744    13.934383701     0.236649391
 H       -0.651878256     0.853704033    -2.879106979
 H       -0.765806041    -0.696117323    -3.702386207
 H        0.782581279    -0.171951498    -3.053624727
 H       -0.458246820    -2.979065223    -0.760922238
 H        0.910181125    -2.464007533    -1.764503774
 H       -0.633030313    -2.861515404    -2.505481873
 H        0.898319300    -0.134073981     2.956380321
 H       -0.528657440    -0.817890641     3.720082066
 H       -0.625149517     0.773967708     2.978515859
 H       -2.539938950    -1.664399359     0.716227575
 H       -2.698291895    -0.138797456     1.610528548
 H       -2.453890452    -1.652418880     2.470526603

