187   

Si        0.000000000     0.000000000     0.000000000
 C        1.865249374     0.000000000     0.000000000
 C       -0.669351691     1.715137149     0.000000000
 C        0.077235944     2.769793439     0.536383664
 C       -0.428956408     4.069202782     0.536808285
 C       -1.693068809     4.343774676     0.008109499
 C       -2.442355278     3.285310360    -0.522337245
 C       -1.939980126     1.986748858    -0.523645494
 C       -2.263558148     5.686573116    -0.013109780
 C       -1.653385621     6.785723279     0.461750003
 C       -2.226038930     8.127717928     0.439398493
 C       -1.478958071     9.188219539     0.969929148
 C       -1.984559210    10.485476677     0.970240105
 C       -3.254005373    10.751949620     0.441498881
 C       -4.001058994     9.695842085    -0.090018543
 C       -3.489335855     8.398623441    -0.093037935
Si       -3.924954806    12.465052077     0.440424110
 C       -5.725022958    12.425313279     0.128821487
 C       -6.381106315    13.158451220    -0.780111294
 C       -7.827381044    13.094584757    -0.996492653
 C       -8.403358906    13.912080722    -1.979421998
 C       -9.766735341    13.889553710    -2.223485378
 C      -10.618474997    13.071322484    -1.449959976
 C      -10.040386857    12.249313517    -0.463298880
 C       -8.666110858    12.250451882    -0.263678355
 N      -12.000615429    13.056191723    -1.706256266
 C      -12.613083440    14.311396760    -2.176810609
 C      -12.848537715    12.327788048    -0.747009683
 C      -12.510029089    15.456426046    -1.153147006
 C      -13.479835771    16.613721780    -1.444606759
 N      -14.921270619    16.267100280    -1.459234376
 C      -15.299856175    15.252845517    -0.547053386
 C      -14.998440712    15.450311700     0.816824861
 C      -15.345911214    14.490725881     1.752333764
 C      -16.023119902    13.321695454     1.371683104
 C      -16.341835925    13.143368203     0.024072635
 C      -15.999853049    14.097879858    -0.927998427
 C      -15.479267678    16.165357524    -2.817886838
 C      -16.367978368    12.337522821     2.400114488
 C      -17.011910803    11.191147278     2.147514562
Si      -17.473414563     9.920666577     3.377394490
 C      -16.914445305     8.277384892     2.768683183
 C      -15.827945836     8.196434561     1.888144212
 C      -15.393087204     6.959884616     1.418657980
 C      -16.023232337     5.776406330     1.825304057
 C      -17.102573505     5.861263348     2.709493032
 C      -17.544343210     7.098022061     3.178198355
 C      -15.530314901     4.505340127     1.305146624
 C      -16.044997012     3.301859972     1.609309670
 C      -15.550764312     2.031630328     1.088163539
 C      -14.471787077     1.948074120     0.204392823
 C      -14.031917580     0.712100455    -0.269388253
 C      -14.668273889    -0.468680791     0.125707474
 C      -15.751919194    -0.387388931     1.010863259
 C      -16.184939278     0.847085638     1.486575293
Si      -14.100521851    -2.107991589    -0.490118342
 C      -12.898457984    -1.931329849    -1.905547156
 C      -13.245102744    -3.056607962     0.921186333
 C      -15.629845326    -3.096157009    -1.045196565
 C      -16.671254138    10.262822406     5.066380378
 C      -19.364058207     9.930153214     3.583075128
 C       -3.620519424    13.254915791     2.144888176
 C       -3.024174313    13.492619773    -0.882397812
 C       -0.647209740    -0.922039335    -1.535053567
 C       -0.631526454    -0.906118434     1.549931208
 H        1.072468316     2.617263962     0.963075908
 H        0.173614178     4.872756726     0.956347633
 H       -3.429884005     3.476915386    -0.937975521
 H       -2.571817186     1.202113758    -0.948747978
 H       -3.261176930     5.752235992    -0.457443537
 H       -0.655962242     6.720808781     0.906056967
 H       -0.492196879     8.998418506     1.387444448
 H       -1.357458700    11.272513011     1.397924704
 H       -4.996552404     9.847702261    -0.520296028
 H       -4.088201080     7.593658230    -0.515123419
 H       -6.264627686    11.724665144     0.787970517
 H       -5.876549354    13.871077835    -1.445595380
 H       -7.768246996    14.570521423    -2.572726272
 H      -10.174956652    14.509237714    -3.016146505
 H      -10.657293511    11.598393145     0.148285289
 H       -8.243033795    11.589778427     0.495132075
 H      -13.913035674    12.425738708    -1.026788116
 H      -12.744910230    12.681623104     0.292119125
 H      -12.600864207    11.251780118    -0.790499898
 H      -15.291168769    17.114899989    -3.350106882
 H      -16.576577608    16.051402266    -2.755596361
 H      -15.070376457    15.340340180    -3.421100870
 H      -14.496764724    16.363928940     1.128040961
 H      -15.098283701    14.653591528     2.801840000
 H      -16.874034849    12.246071610    -0.296595462
 H      -16.267097626    13.925885236    -1.966121120
 H      -16.044717005    12.630580952     3.407142924
 H      -17.330858358    10.932544297     1.123149221
 H      -15.294829419     9.087633014     1.540400419
 H      -14.551404912     6.915137899     0.729858532
 H      -17.609176299     4.956686132     3.040678922
 H      -18.393683753     7.102471454     3.866672214
 H      -14.679487284     4.589985879     0.622509861
 H      -16.895750780     3.216358003     2.291619468
 H      -13.961752113     2.852568851    -0.122260047
 H      -13.181683842     0.710352738    -0.957148049
 H      -16.288515365    -1.276763776     1.353274429
 H      -17.027305594     0.889768442     2.174363840
 H      -12.139763414    14.602172305    -3.140706838
 H      -13.679417721    14.095869813    -2.417649185
 H      -12.691564799    15.058625133    -0.133847149
 H      -11.472229178    15.843037143    -1.126537013
 H      -13.355696249    17.397662254    -0.658019034
 H      -13.209833427    17.098634050    -2.407557951
 H        2.263515225    -1.028828627    -0.054767173
 H        2.277255617     0.468127360     0.910845774
 H        2.258575828     0.555916094    -0.870767955
 H      -12.594968432    -2.919391464    -2.295379939
 H      -11.980995640    -1.398766614    -1.599275885
 H      -13.351472189    -1.369810683    -2.742725892
 H      -12.867537714    -4.014029867     0.458453044
 C      -12.036587454    -2.294788572     1.495714616
 C      -14.189055643    -3.427743586     2.078791631
 H      -16.282222546    -3.196303466    -0.129335245
 C      -16.445239084    -2.362162834    -2.125134530
 C      -15.297635067    -4.513523757    -1.544381018
 H      -16.964546068    11.316934772     5.342735682
 C      -17.171394599     9.322316436     6.177261615
 C      -15.134181425    10.189928511     5.011689328
 H      -19.596060712     9.145936372     4.360786048
 C      -19.907198612    11.277861320     4.089470178
 C      -20.100609699     9.546946303     2.287182411
 H       -2.500711941    13.278659543     2.280856044
 C       -4.143760435    14.698699740     2.241520993
 C       -4.220418725    12.424735111     3.293721662
 H       -3.551347617    14.490133478    -0.909712882
 C       -1.541339921    13.748940499    -0.559088849
 C       -3.121170075    12.858619789    -2.282188507
 H       -1.772484298    -0.922964798    -1.445525968
 C       -0.278632967    -0.211151513    -2.849884034
 C       -0.182232987    -2.387446674    -1.611437093
 H       -0.167638483    -1.933871025     1.516644603
 C       -0.187537896    -0.223926376     2.856841920
 C       -2.161663565    -1.072282766     1.574334310
 H      -11.270697182    -2.060952168     0.745079563
 H      -11.537990614    -2.903462982     2.263681363
 H      -12.319902111    -1.352408464     1.986422301
 H      -15.044116538    -4.039983845     1.765714919
 H      -14.579312979    -2.547869161     2.609433649
 H      -13.646546893    -4.021079098     2.829392108
 H      -16.767857957    -1.357277288    -1.816955350
 H      -17.363344741    -2.923103721    -2.350777393
 H      -15.904821646    -2.259022667    -3.075420440
 H      -14.774628203    -5.126025490    -0.798591637
 H      -14.693181142    -4.513987609    -2.461124516
 H      -16.224928980    -5.052186952    -1.788220379
 H      -18.252068223     9.393535310     6.354780937
 H      -16.687322641     9.577273834     7.131434452
 H      -16.930533724     8.266864104     5.986325193
 H      -14.687178672    10.861401250     4.266081517
 H      -14.764037396     9.175442556     4.803476030
 H      -14.708001064    10.478738526     5.982857968
 H      -19.489925970    11.579465332     5.058893728
 H      -20.995978916    11.216258084     4.229619855
 H      -19.735064992    12.101941894     3.382262936
 H      -19.793912808     8.571941439     1.882879120
 H      -19.977427267    10.291082839     1.488372341
 H      -21.181311020     9.474177509     2.475689381
 H       -3.694110180    15.374980694     1.503219108
 H       -3.907155460    15.119868247     3.228985263
 H       -5.235764171    14.765795907     2.132207492
 H       -3.858743717    11.386924289     3.315770327
 H       -5.318385874    12.393653785     3.271568765
 H       -3.943809690    12.866054729     4.261741268
 H       -1.386955008    14.282183939     0.387440021
 H       -1.090241857    14.376970115    -1.341152110
 H       -0.944765323    12.826414533    -0.528320808
 H       -4.153273898    12.678734171    -2.613240281
 H       -2.583852393    11.901788401    -2.353954754
 H       -2.667631975    13.523200851    -3.030647149
 H       -0.623288057     0.831994823    -2.891774185
 H       -0.748123156    -0.724440659    -3.701023897
 H        0.801525696    -0.209560010    -3.048040408
 H       -0.475137408    -2.982736558    -0.736986840
 H        0.904327225    -2.486477257    -1.734990059
 H       -0.636142631    -2.879861473    -2.483727561
 H        0.902202706    -0.141137611     2.957227256
 H       -0.531884961    -0.808241913     3.722238280
 H       -0.611919087     0.783216994     2.978120223
 H       -2.551528141    -1.641890123     0.721293935
 H       -2.695262749    -0.111656081     1.609452581
 H       -2.465611070    -1.624247370     2.475614840

