187   

Si        0.000000000     0.000000000     0.000000000
 C        1.865239018     0.000000000     0.000000000
 C       -0.677623916     1.711552761     0.000000000
 C        0.117672890     2.800870875    -0.369812637
 C       -0.404673634     4.094135511    -0.366698790
 C       -1.732677471     4.327612165    -0.000119182
 C       -2.529650855     3.234420956     0.365406220
 C       -2.011086816     1.942517876     0.363949594
 C       -2.322040360     5.662279074     0.018015698
 C       -1.670339371     6.791446712    -0.307920656
 C       -2.260220710     8.125892719    -0.289606022
 C       -3.588537249     8.357302548     0.077309048
 C       -4.112534130     9.649969897     0.080982661
 C       -3.321200125    10.738175798    -0.297231753
 C       -1.988813787    10.508745886    -0.668294064
 C       -1.465495547     9.219233061    -0.659434503
Si       -3.978363093    12.457976249    -0.304712735
 C       -3.256033837    13.426952407    -1.681000812
 C       -2.874798403    12.862350296    -2.834233829
 C       -2.292619001    13.585188592    -3.966548455
 C       -1.943582002    12.849217670    -5.109278720
 C       -1.388603293    13.473551907    -6.214367642
 C       -1.140990024    14.857596177    -6.186810196
 C       -1.483163762    15.598048121    -5.049623171
 C       -2.064763725    14.963107411    -3.955521821
 N       -0.566693358    15.417928237    -7.370740798
 C        0.860753186    15.059014342    -7.528984117
 C       -0.820661372    16.856066846    -7.564538489
 C        1.808372130    15.766701264    -6.541345126
 C        2.885254729    14.834388638    -5.956059638
 N        2.476713730    14.059342234    -4.769835733
 C        1.932546016    14.764582309    -3.685071256
 C        2.290419906    16.113054802    -3.466745365
 C        1.757567234    16.815347826    -2.398512679
 C        0.914647991    16.193515581    -1.468047450
 C        0.590476235    14.847429995    -1.662482366
 C        1.087019180    14.138162192    -2.747222592
 C        1.872999462    12.755348136    -5.085747363
 C        0.385735658    16.992567325    -0.363035036
 C       -0.427296223    16.520848118     0.590561352
Si       -1.100510130    17.498121174     1.979617264
 C       -2.917228643    17.212275810     2.033627662
 C       -3.618091164    17.080542001     0.828642625
 C       -4.994390560    16.863344239     0.832506792
 C       -5.702014490    16.787793929     2.036054553
 C       -4.998391998    16.925024943     3.239367489
 C       -3.620860014    17.132744659     3.239976890
 C       -7.142527104    16.561868713     2.086875576
 C       -7.928022107    16.414426496     1.006600330
 C       -9.368233973    16.188305084     1.046290390
 C      -10.085713632    16.101384291     2.241668245
 C      -11.463492760    15.884013684     2.231590681
 C      -12.153357144    15.749683534     1.022809154
 C      -11.435125501    15.834311548    -0.177826583
 C      -10.059929912    16.048273676    -0.164529329
Si      -13.971423585    15.462468098     0.991509546
 C      -14.744818897    15.769080722     2.660893471
 C      -14.736604689    16.620105325    -0.311276022
 C      -14.315172894    13.661718949     0.478839801
 C       -0.254432203    17.000973726     3.606757896
 C       -0.805327905    19.359975306     1.711042341
 C       -5.868592314    12.432976000    -0.497370485
 C       -3.515026829    13.302280016     1.332771662
 C       -0.620563167    -0.917584479    -1.547848706
 C       -0.652828322    -0.909744183     1.539830195
 H        1.163578738     2.681121890    -0.665438123
 H        0.236439750     4.925237457    -0.654662791
 H       -3.566866796     3.394146790     0.654026434
 H       -2.680812324     1.129648029     0.658322888
 H       -3.371377329     5.694805925     0.325678382
 H       -0.620916621     6.759408304    -0.614882338
 H       -4.227354232     7.525691093     0.368523822
 H       -5.155890564     9.768559018     0.386333397
 H       -1.322488249    11.324307987    -0.971027209
 H       -0.427577889     9.060554970    -0.945554538
 H       -3.168554793    14.510068191    -1.510203935
 H       -2.964771871    11.781862203    -3.021895892
 H       -2.124377199    11.774208524    -5.136402477
 H       -1.155115199    12.906481568    -7.113358496
 H       -1.290478210    16.666197081    -5.006089900
 H       -2.323872329    15.553956046    -3.075294213
 H       -0.513373946    17.129757829    -8.588780369
 H       -0.298001012    17.517717462    -6.857247564
 H       -1.906144251    17.044208359    -7.486356821
 H        2.346467736    12.318124957    -5.978837002
 H        0.783156551    12.809817832    -5.258798424
 H        2.063559487    12.058852542    -4.247909940
 H        2.982360493    16.613748898    -4.136424484
 H        2.021094551    17.865811337    -2.271791921
 H       -0.071848121    14.338778230    -0.958159330
 H        0.794768297    13.099332577    -2.870783327
 H        0.727498812    18.036050064    -0.387830847
 H       -0.749046258    15.465602870     0.596799373
 H       -3.115570713    17.132126320    -0.143816933
 H       -5.516578515    16.756759445    -0.117193630
 H       -5.530578324    16.867526603     4.186680786
 H       -3.123798993    17.229507081     4.208654875
 H       -7.564895641    16.512868561     3.094244510
 H       -7.504954396    16.473921876    -0.001659979
 H       -9.572279521    16.204568799     3.195825931
 H      -11.971407197    15.827170436     3.198267929
 H      -11.921851062    15.737333926    -1.152518445
 H       -9.519227186    16.110238685    -1.107294395
 H        0.947052818    13.954121282    -7.431520733
 H        1.145706637    15.298642618    -8.577392628
 H        2.296054957    16.624342225    -7.038319338
 H        1.215854921    16.210688849    -5.713036819
 H        3.252461038    14.130164140    -6.734739696
 H        3.778001702    15.437192409    -5.658886788
 H        2.263064927    -1.028874521     0.058665918
 H        2.260315147     0.558784676     0.868013380
 H        2.275762106     0.463466745    -0.914014130
 H      -15.841240210    15.639610139     2.621392503
 H      -14.545126626    16.799550886     3.006964473
 H      -14.355676134    15.074746934     3.426060599
 H      -14.254406681    16.341972206    -1.293467574
 C      -16.257818569    16.447491770    -0.468094752
 C      -14.425207781    18.102672653    -0.037616561
 H      -15.434446971    13.534734348     0.544387370
 C      -13.882426942    13.336037835    -0.961829972
 C      -13.662226526    12.643129970     1.431279377
 H       -0.711592981    17.657610855     4.403161771
 C       -0.499510080    15.535254544     4.003736916
 C        1.263025405    17.261606485     3.589658519
 H        0.307743740    19.481435907     1.572361455
 C       -1.507411144    19.895142108     0.449496314
 C       -1.232171043    20.219531274     2.914236793
 H       -6.261765088    11.848423872     0.384624350
 C       -6.497580137    13.834594844    -0.454083795
 C       -6.322830168    11.722270880    -1.784921760
 H       -3.677532101    14.410973746     1.175612193
 C       -4.386136224    12.866424606     2.522943281
 C       -2.035239776    13.075744250     1.688835742
 H       -0.136787552    -1.936288858    -1.514638132
 C       -2.146934098    -1.114708530    -1.572195760
 C       -0.191280666    -0.227646290    -2.855681306
 H       -1.777376602    -0.917593336     1.441489615
 C       -0.179471519    -2.371087406     1.636064281
 C       -0.299700638    -0.180835240     2.848973613
 H      -16.554497718    15.424479707    -0.733264142
 H      -16.627073363    17.093704108    -1.277825795
 H      -16.816733627    16.735115473     0.432264568
 H      -13.348633835    18.314239321     0.033116073
 H      -14.896982793    18.478292689     0.880033168
 H      -14.806841769    18.725811372    -0.859016772
 H      -14.366747262    13.968451209    -1.716558519
 H      -14.155668485    12.299991260    -1.210211550
 H      -12.795336655    13.407903824    -1.107393392
 H      -13.983048358    12.753341271     2.475113020
 H      -12.563646085    12.686116525     1.414444164
 H      -13.934342277    11.620444394     1.133069825
 H       -1.564718957    15.276115256     4.079084040
 H       -0.065174791    15.334893850     4.993750785
 H       -0.025349204    14.824109331     3.311969016
 H        1.524085043    18.311887653     3.407290394
 H        1.793054395    16.652284809     2.843209879
 H        1.700803174    17.002580973     4.564311068
 H       -1.233538250    19.357549924    -0.468571870
 H       -1.235369448    20.947054519     0.284409542
 H       -2.603702025    19.871008512     0.531557805
 H       -0.692416506    19.975096333     3.838015909
 H       -2.308511758    20.154577061     3.127342300
 H       -1.025082542    21.280302425     2.710832160
 H       -6.249847207    14.390843183     0.462487172
 H       -7.594969015    13.756181963    -0.471306750
 H       -6.216214129    14.455314781    -1.315068402
 H       -5.966924242    10.686212550    -1.862600686
 H       -6.007143919    12.248200854    -2.697275540
 H       -7.420510364    11.674452550    -1.820627577
 H       -5.453885029    13.080400414     2.381378463
 H       -4.086072569    13.418180642     3.426148359
 H       -4.285038003    11.800309266     2.764767056
 H       -1.339514296    13.427936152     0.915472758
 H       -1.799826496    12.021325401     1.892849382
 H       -1.785254388    13.625754877     2.607570938
 H       -2.525771120    -1.688069281    -0.716692170
 H       -2.438543975    -1.677440562    -2.470959950
 H       -2.699601123    -0.165375460    -1.613728221
 H        0.896375079    -0.120613517    -2.956120582
 H       -0.637104807     0.770005195    -2.978079420
 H       -0.522430450    -0.820268933    -3.720488765
 H       -0.457336803    -2.976645471     0.763799572
 H       -0.641035690    -2.858181170     2.507385800
 H        0.906124446    -2.461483333     1.774056333
 H       -0.656155198     0.858922498     2.876531875
 H        0.778895626    -0.165659949     3.054434115
 H       -0.770043057    -0.689389998     3.702549134

