187   

Si        0.000000000     0.000000000     0.000000000
 C        1.865519812     0.000000000     0.000000000
 C       -0.656335309     1.720623210     0.000000000
 C        0.092106624     2.760178169     0.563118565
 C       -0.397449230     4.065539415     0.567238450
 C       -1.646908434     4.362239561     0.015746481
 C       -2.398130889     3.319275255    -0.541403300
 C       -1.912067924     2.014169751    -0.546585636
 C       -2.196768170     5.713958808    -0.000817947
 C       -1.575744544     6.795068627     0.500803685
 C       -2.117516256     8.149645659     0.488694058
 C       -3.364982524     8.459647246    -0.059367429
 C       -3.842074903     9.770167002    -0.048243025
 C       -3.088815806    10.795605013     0.531819004
 C       -1.839388086    10.486986183     1.086139241
 C       -1.358762448     9.180979406     1.058415201
Si       -3.687229709    12.533527246     0.563953847
 C       -3.161401572    13.420853399     2.073206458
 C       -2.958952964    12.822811328     3.255068153
 C       -2.538149738    13.518512002     4.472079416
 C       -2.361541560    12.772022481     5.646804532
 C       -1.964564009    13.377833887     6.827196158
 C       -1.788939238    14.777054201     6.887085508
 C       -1.975684150    15.527920946     5.712530298
 C       -2.325279189    14.898012113     4.523792879
 N       -1.383789245    15.366007567     8.103764423
 C       -2.007753013    14.819079275     9.327555305
 C       -1.285437557    16.835267747     8.117360585
 C       -3.543396136    14.727809699     9.248983056
 C       -4.259965070    15.059028966    10.568650390
 N       -4.088523564    16.434539199    11.086446362
 C       -4.054712203    17.470339171    10.135369152
 C       -4.988807770    17.449322535     9.075664637
 C       -4.985111710    18.451294776     8.122112038
 C       -4.104218254    19.539953708     8.219244666
 C       -3.208637216    19.579930722     9.288849208
 C       -3.182226688    18.568045116    10.242312396
 C       -3.142852008    16.528012368    12.209521817
 C       -4.149330891    20.566657326     7.178962784
 C       -3.367932707    21.654785176     7.148026318
Si       -3.478267058    22.901421013     5.813106313
 C       -4.018100012    22.075503293     4.259172627
 C       -3.460012311    20.830190680     3.940867006
 C       -3.834072508    20.163128223     2.777221127
 C       -4.768591040    20.725277780     1.901780304
 C       -5.322247487    21.971340862     2.219865033
 C       -4.951525443    22.640768024     3.385025394
 C       -5.185528724    20.057004555     0.673350826
 C       -4.722203957    18.862462523     0.268483238
 C       -5.125748840    18.178449655    -0.954481399
 C       -6.057117468    18.708145098    -1.850643596
 C       -6.408629274    18.011955320    -3.007629443
 C       -5.828700217    16.772670276    -3.294849285
 C       -4.887512976    16.244505305    -2.401394679
 C       -4.537062409    16.941487210    -1.249500202
Si       -6.268598949    15.826992264    -4.811209792
 C       -7.796084227    16.509606436    -5.632813645
 C       -4.815970108    15.897269685    -6.039291255
 C       -6.533275649    14.008506032    -4.309824474
 C       -4.703380575    24.263645815     6.320083438
 C       -1.765101391    23.682641324     5.552325095
 C       -2.936395501    13.417677457    -0.945593052
 C       -5.581917746    12.623379839     0.423955084
 C       -0.650447110    -0.920050198    -1.534322984
 C       -0.634411026    -0.902750468     1.550301977
 H        1.076324598     2.590976116     1.009010918
 H        0.206945398     4.856624366     1.007648322
 H       -3.374308669     3.527761592    -0.975018088
 H       -2.544586454     1.242117206    -0.992987720
 H       -3.183694140     5.802321522    -0.463428452
 H       -0.588054996     6.703526145     0.963160585
 H       -3.974706695     7.676690255    -0.505813520
 H       -4.820225916     9.953702743    -0.501086924
 H       -1.207506824    11.250412475     1.553328345
 H       -0.383806106     8.960604785     1.489496916
 H       -3.035539695    14.507359377     1.952908816
 H       -3.088076767    11.740616146     3.401710400
 H       -2.521269169    11.693222627     5.628762621
 H       -1.790546840    12.769641572     7.710021885
 H       -1.856291452    16.607635541     5.717045957
 H       -2.452438696    15.501646083     3.623822912
 H       -0.897303400    17.173546834     9.092574489
 H       -2.249046822    17.346784947     7.941421933
 H       -0.557937306    17.160565008     7.352756475
 H       -3.354454585    15.725649519    12.937286885
 H       -3.304905471    17.484337919    12.741022004
 H       -2.083585951    16.462844065    11.914404925
 H       -5.718020639    16.645195064     9.012483880
 H       -5.693708403    18.402686463     7.292922246
 H       -2.517581003    20.418078515     9.388484634
 H       -2.469510654    18.635339220    11.057063665
 H       -4.896142228    20.351523106     6.398994937
 H       -2.632962126    21.863346633     7.936997408
 H       -2.726086549    20.338813937     4.590010632
 H       -3.390392785    19.193573820     2.555747300
 H       -6.051167274    22.425704249     1.551737042
 H       -5.415349540    23.611076120     3.580572219
 H       -5.922203183    20.602925978     0.078236277
 H       -3.984918758    18.320562323     0.870466833
 H       -6.521812637    19.671313008    -1.649423565
 H       -7.147262791    18.472906892    -3.668670094
 H       -4.397991436    15.280896106    -2.581930781
 H       -3.796878885    16.521962785    -0.568724922
 H       -1.567065363    13.812639517     9.510112990
 H       -1.692605827    15.444038912    10.190738305
 H       -3.909529505    15.392133935     8.438123253
 H       -3.842176087    13.712085772     8.922981654
 H       -5.359813579    14.911355029    10.429259897
 H       -3.952370231    14.333165002    11.352855106
 H        2.264330027    -1.027876863    -0.067301385
 H        2.277519664     0.457218260     0.916318780
 H        2.258287135     0.566534075    -0.864179015
 H       -8.073133182    15.912253140    -6.519782940
 H       -7.649551996    17.551607988    -5.967348182
 H       -8.658512422    16.495609728    -4.941835872
 H       -5.171171908    15.354059536    -6.962253157
 C       -4.456510862    17.338907067    -6.442934395
 C       -3.542306709    15.194953530    -5.534789316
 H       -5.535619344    13.651140572    -3.917362702
 C       -7.566090815    13.844938904    -3.180867389
 C       -6.926699467    13.099484619    -5.486928562
 H       -4.751614134    24.979117609     5.448809313
 C       -6.119612128    23.714692130     6.570644467
 C       -4.251951424    25.056296442     7.560083801
 H       -1.493489689    24.169754938     6.533270836
 C       -0.684185371    22.636613411     5.224677978
 C       -1.757526137    24.767125995     4.460900004
 H       -3.367400620    14.460155988    -0.937115598
 C       -1.404906815    13.537281811    -0.859210666
 C       -3.310050013    12.747235049    -2.278783217
 H       -5.847405705    12.163240182    -0.571355001
 C       -6.287058296    11.816596557     1.529154674
 C       -6.123138673    14.063959099     0.440821382
 H       -1.775997118    -0.910859780    -1.448080756
 C       -0.271601898    -0.216135744    -2.850021484
 C       -0.198211493    -2.389717570    -1.605545233
 H       -0.173638050    -1.932000955     1.518192227
 C       -0.189110240    -0.221027846     2.857035361
 C       -2.165076620    -1.064276001     1.573840058
 H       -5.294532818    17.889958322    -6.888687703
 H       -3.658620678    17.330868704    -7.199414464
 H       -4.076180616    17.935748138    -5.601362993
 H       -3.691287711    14.130729200    -5.311595214
 H       -3.115409348    15.674268628    -4.642474409
 H       -2.760365414    15.237897558    -6.307256610
 H       -7.309310724    14.411895423    -2.273656829
 H       -7.628209917    12.790316049    -2.876010036
 H       -8.580238979    14.140507520    -3.478995382
 H       -6.198487965    13.109907096    -6.308192293
 H       -7.909231143    13.347085669    -5.909778393
 H       -6.992933878    12.054798122    -5.149195323
 H       -6.540896124    23.176919162     5.710314657
 H       -6.812133626    24.540195878     6.787118790
 H       -6.167056521    23.037272061     7.436026019
 H       -3.282826976    25.554555683     7.430419336
 H       -4.192892194    24.436343830     8.465503529
 H       -4.977832869    25.852349322     7.781115737
 H       -0.597244969    21.845516504     5.981745708
 H        0.301758871    23.119605191     5.168259088
 H       -0.842764851    22.150912990     4.251061368
 H       -2.444543696    25.598010120     4.666618997
 H       -2.000121762    24.372675277     3.463698234
 H       -0.754864605    25.211175010     4.378281810
 H       -1.057190198    14.057822131     0.043387913
 H       -1.022228788    14.112240597    -1.714582928
 H       -0.897070443    12.563099237    -0.893728521
 H       -4.393580357    12.673448231    -2.443332233
 H       -2.893135113    11.734542612    -2.377620326
 H       -2.903101045    13.326799943    -3.120526907
 H       -5.994539841    10.758385707     1.557011118
 H       -7.374711757    11.831380949     1.371622824
 H       -6.116435336    12.230862169     2.533535905
 H       -5.733606881    14.690204111    -0.374376754
 H       -5.923863873    14.587427014     1.386384282
 H       -7.216075469    14.057551824     0.321565166
 H       -0.605567238     0.830265491    -2.895632600
 H       -0.743931512    -0.727038137    -3.701041528
 H        0.809075668    -0.225857509    -3.045325700
 H       -0.498993554    -2.980223603    -0.730517950
 H        0.887801469    -2.498717733    -1.725519827
 H       -0.653840449    -2.880332331    -2.477984949
 H        0.900782707    -0.140130506     2.957452173
 H       -0.534418060    -0.804650522     3.722529403
 H       -0.611747778     0.786851662     2.978114145
 H       -2.556168779    -1.632925935     0.720673208
 H       -2.695842297    -0.102112838     1.608196136
 H       -2.471220536    -1.615121503     2.475061713

