187   

Si        0.000000000     0.000000000     0.000000000
 C        1.865214022     0.000000000     0.000000000
 C       -0.673167723     1.713680771     0.000000000
 C        0.119567313     2.794535467    -0.399557785
 C       -0.394975311     4.090735691    -0.397795355
 C       -1.712916997     4.335938132    -0.003320614
 C       -2.507558401     3.251442464     0.391493089
 C       -1.996580162     1.956328010     0.391407106
 C       -2.292568445     5.675012778     0.014028453
 C       -1.639082350     6.794951559    -0.339019236
 C       -2.215769304     8.135201996    -0.322776539
 C       -3.533792309     8.384228196     0.071239523
 C       -4.043907972     9.681616788     0.071421748
 C       -3.241222348    10.759975291    -0.316565282
 C       -1.920794079    10.514677877    -0.712435302
 C       -1.417391057     9.216148720    -0.718715517
Si       -3.908413705    12.473015105    -0.318334772
 C       -2.531965391    13.676363846    -0.297163346
 C       -2.390864319    14.720724694    -1.123175124
 C       -1.268362398    15.660471272    -1.068509862
 C       -1.228818316    16.719507022    -1.989116865
 C       -0.189125465    17.634438795    -1.978510328
 C        0.833090031    17.532740627    -1.013567856
 C        0.800059905    16.474062605    -0.095255295
 C       -0.230576856    15.540721390    -0.141979210
 N        1.871803454    18.502708095    -1.056259759
 C        1.404412789    19.886345978    -0.808853170
 C        3.082281356    18.173353099    -0.282677172
 C        0.679376471    20.085682636     0.534496575
 C       -0.853807530    20.035303643     0.372193377
 N       -1.565844878    19.625871921     1.595881913
 C       -1.333261275    20.397005158     2.749370382
 C       -1.177678400    21.795445893     2.629732716
 C       -0.948005026    22.573892347     3.751659865
 C       -0.912397816    22.006149582     5.033982207
 C       -1.097921465    20.626692300     5.153328289
 C       -1.312915464    19.828561550     4.036648449
 C       -1.618931164    18.164799195     1.766161342
 C       -0.665621066    22.877208119     6.183682073
 C       -0.608795857    22.453439163     7.453636336
Si       -0.299803551    23.549890570     8.883871439
 C       -0.932743266    25.251429289     8.585539206
 C       -2.090865158    25.433706390     7.820476829
 C       -2.588226495    26.713541961     7.581769244
 C       -1.949040254    27.838485047     8.111200915
 C       -0.795276978    27.653286041     8.883799479
 C       -0.293382911    26.375667965     9.120992152
 C       -2.434673485    29.196095702     7.886800550
 C       -3.525837223    29.507708254     7.166869544
 C       -4.014055583    30.863951705     6.940597712
 C       -3.377305401    31.992220450     7.463909105
 C       -3.879355366    33.270955959     7.222095152
 C       -5.027691237    33.449031703     6.444375771
 C       -5.667779723    32.318934505     5.917652290
 C       -5.167744626    31.043698089     6.165487268
Si       -5.703981404    35.129197170     6.115174051
 C       -4.497937577    36.464062009     6.608921441
 C       -6.101472508    35.255913333     4.257810447
 C       -7.316786988    35.370348337     7.096969497
 C       -1.189511208    22.824311167    10.400650309
 C        1.569658988    23.593094055     9.234492726
 C       -5.011331706    12.713696004    -1.848037783
 C       -4.960051799    12.748707622     1.243402863
 C       -0.623995197    -0.914616959    -1.547901218
 C       -0.653225727    -0.910364478     1.539164161
 H        1.157735545     2.665718378    -0.718195121
 H        0.244167830     4.914797657    -0.709795438
 H       -3.537063409     3.420105242     0.701692736
 H       -2.664139986     1.150326109     0.708575831
 H       -3.334336019     5.718747578     0.344680347
 H       -0.597254419     6.750026393    -0.670137449
 H       -4.175293344     7.561650377     0.381708292
 H       -5.082312623     9.814758347     0.387255304
 H       -1.250544175    11.320306217    -1.029342764
 H       -0.389924432     9.042822122    -1.033488527
 H       -1.791441261    13.473703454     0.495276918
 H       -3.112291805    14.954206102    -1.916816122
 H       -2.020874914    16.818965890    -2.731808000
 H       -0.148102193    18.427602501    -2.722232381
 H        1.575152502    16.369246125     0.658355022
 H       -0.226714291    14.713177001     0.569344479
 H        3.881913712    18.881793222    -0.563126714
 H        3.434629453    17.165315651    -0.563350002
 H        2.950777655    18.213750111     0.809791227
 H       -1.841217757    17.681594627     0.796075207
 H       -2.448333118    17.906504109     2.448256428
 H       -0.682331964    17.729230629     2.149441292
 H       -1.235124435    22.268337873     1.653624909
 H       -0.808384150    23.649469377     3.634759828
 H       -1.076074404    20.159557677     6.138861587
 H       -1.449941692    18.760843549     4.174220240
 H       -0.536576514    23.933056512     5.904519744
 H       -0.732648124    21.390239164     7.707535330
 H       -2.636527324    24.589907884     7.383724042
 H       -3.486457248    26.829244256     6.977880044
 H       -0.283007917    28.515560749     9.305965754
 H        0.609459958    26.293524039     9.731941739
 H       -1.835342887    29.980742993     8.357545739
 H       -4.125021843    28.722129551     6.696814201
 H       -2.479541340    31.881077441     8.069204481
 H       -3.338571507    34.114901888     7.659259412
 H       -6.568462309    32.397065095     5.302129019
 H       -5.679766807    30.178027470     5.749535161
 H        2.289851100    20.558510168    -0.869167748
 H        0.748764966    20.179622515    -1.659040395
 H        1.004532780    19.316340985     1.261130796
 H        0.973867430    21.048679115     0.991787632
 H       -1.242962593    21.029529584     0.056673176
 H       -1.138430563    19.331129843    -0.443887308
 H        2.263125499    -1.028313274     0.068280535
 H        2.260134690     0.566799103     0.862861850
 H        2.276025319     0.454850056    -0.918219878
 H       -4.895320466    37.466948384     6.371047569
 H       -3.539588340    36.350922295     6.070331677
 H       -4.281683299    36.440314299     7.691348672
 H       -6.863990011    34.449956486     4.049464189
 C       -6.719647147    36.605625311     3.852204806
 C       -4.872681058    34.980366473     3.372317599
 H       -7.639992212    36.432322208     6.894411041
 C       -8.455789465    34.434154333     6.655299630
 C       -7.111875004    35.214811373     8.615073854
 H       -0.762881243    21.790408562    10.547836850
 C       -0.944951846    23.630862535    11.687916593
 C       -2.706239301    22.687731297    10.176338236
 H        1.702803834    24.241817793    10.147811364
 C        2.159909171    22.206492665     9.547810031
 C        2.365518374    24.223903153     8.077649683
 H       -5.305374030    13.803300988    -1.850508695
 C       -4.265936905    12.413446756    -3.161314606
 C       -6.300572766    11.874072120    -1.809290042
 H       -5.813552039    12.013620008     1.176848589
 C       -4.180925596    12.455576384     2.537933557
 C       -5.555516482    14.165129061     1.325124313
 H       -0.146386685    -1.936232237    -1.514058376
 C       -2.151592316    -1.102237310    -1.572467639
 C       -0.190050779    -0.227875621    -2.855822140
 H       -1.777975037    -0.914443049     1.442897235
 C       -0.184688575    -2.373460715     1.632112064
 C       -0.295274626    -0.185089324     2.849079066
 H       -7.646529977    36.839121207     4.391907308
 H       -6.981460948    36.592316337     2.784104643
 H       -6.031310897    37.450288562     3.988271691
 H       -4.408237243    34.002997874     3.567155878
 H       -4.090442048    35.744292718     3.473379434
 H       -5.164975604    34.975153533     2.312592931
 H       -8.718401087    34.536229781     5.594804549
 H       -9.370830920    34.664234449     7.220520107
 H       -8.236041082    33.374715451     6.848867709
 H       -6.370785867    35.910507727     9.029226774
 H       -6.810488288    34.197339602     8.903252780
 H       -8.053553561    35.418067792     9.145006566
 H        0.114123919    23.694210812    11.968276372
 H       -1.458372703    23.152670177    12.534633589
 H       -1.338325964    24.656045420    11.631841803
 H       -2.964599240    22.075621878     9.301350890
 H       -3.210187277    23.658414672    10.062639549
 H       -3.173374588    22.199395956    11.043158453
 H        1.695178130    21.720591377    10.415080900
 H        3.229550102    22.298756509     9.785166824
 H        2.093340938    21.512378634     8.698317334
 H        2.040329047    25.243385053     7.827989436
 H        2.319503975    23.628414387     7.154170183
 H        3.428794970    24.296362438     8.345566736
 H       -3.347358116    13.001587293    -3.291511350
 H       -4.907850034    12.648396700    -4.022029720
 H       -3.992553024    11.352911511    -3.262286931
 H       -6.944070430    12.102109053    -0.950094131
 H       -6.107547466    10.791940459    -1.808610443
 H       -6.905707649    12.074339399    -2.705705776
 H       -3.757111079    11.441847866     2.571295822
 H       -4.850545215    12.535321223     3.406287250
 H       -3.361031730    13.164994310     2.714883458
 H       -6.198779669    14.416774782     0.472022904
 H       -4.788620403    14.948871577     1.406706547
 H       -6.185866716    14.257041003     2.221344876
 H       -2.534271377    -1.673259983    -0.717116353
 H       -2.446508454    -1.663126567    -2.471340329
 H       -2.698419391    -0.149527009    -1.613932345
 H        0.898283758    -0.127396295    -2.955917528
 H       -0.630034917     0.772213844    -2.979293458
 H       -0.524211562    -0.819179009    -3.720459493
 H       -0.464802974    -2.976356315     0.758694675
 H       -0.647650256    -2.860886627     2.502527666
 H        0.900651670    -2.467782835     1.769596657
 H       -0.648896509     0.855461792     2.879769692
 H        0.783839554    -0.173239457     3.052151354
 H       -0.764900732    -0.694369989     3.702650263

