187   

Si        0.000000000     0.000000000     0.000000000
 C        1.864393689     0.000000000     0.000000000
 C       -0.699656005     1.704320642     0.000000000
 C        0.122965434     2.834594597    -0.033461484
 C       -0.429403143     4.115797040    -0.032774616
 C       -1.814955121     4.297128856    -0.042520786
 C       -2.638633557     3.163856423    -0.011074105
 C       -2.089606735     1.885504993     0.028991000
 C       -2.440740870     5.615947915    -0.042244413
 C       -1.768407641     6.779518742    -0.032781510
 C       -2.384937664     8.101564211    -0.032423246
 C       -1.553031943     9.228285099    -0.021898275
 C       -2.090602801    10.512791689    -0.021087496
 C       -3.477414235    10.708472163    -0.026571453
 C       -4.308894810     9.582859537    -0.058369250
 C       -3.768272119     8.297052456    -0.083974895
Si       -4.202919389    12.402103177    -0.025574258
 C       -5.186090632    12.771954822     1.473401591
 C       -4.983099009    12.264912590     2.697701406
 C       -5.801154564    12.594318725     3.867769474
 C       -5.504445604    12.007646121     5.107219983
 C       -6.253204184    12.292346549     6.238009209
 C       -7.285463930    13.254065740     6.196694044
 C       -7.574777027    13.854797890     4.952494402
 C       -6.861353373    13.503639147     3.814219285
 N       -8.049586007    13.551763714     7.330568220
 C       -7.497869792    13.344836625     8.683955190
 C       -8.944078962    14.717632190     7.256468416
 C       -8.545215433    12.575553956     9.512945955
 C       -8.073820543    12.192878844    10.927889249
 N       -6.860511638    11.342041829    11.036034786
 C       -6.638355890    10.500047959     9.917197962
 C       -7.678441368     9.628011605     9.534134092
 C       -7.511460317     8.785467414     8.448349943
 C       -6.286683117     8.722485186     7.767739759
 C       -5.244707365     9.554223043     8.181355896
 C       -5.408335303    10.432198631     9.247258604
 C       -5.689387432    12.097010616    11.517086158
 C       -6.156426456     7.817270739     6.625493340
 C       -5.027249635     7.691827626     5.917782676
Si       -4.783398351     6.591774622     4.487372827
 C       -3.297922740     5.518925327     4.526442526
 C       -3.019594722     4.688171463     5.618526238
 C       -1.881890068     3.883098478     5.619842499
 C       -1.010433972     3.873602349     4.523341029
 C       -1.297743277     4.695734313     3.431247868
 C       -2.427500822     5.508931890     3.431307543
 C        0.173343896     3.021453914     4.550871122
 C        1.067320177     2.957272160     3.549682586
 C        2.259756788     2.120067475     3.540058088
 C        2.602779820     1.276851768     4.599891923
 C        3.756027180     0.494857936     4.541727418
 C        4.599195965     0.554947320     3.427867957
 C        4.265430926     1.411109708     2.370219764
 C        3.112396159     2.188167687     2.430142852
Si        6.125392177    -0.466180520     3.327570224
 C        6.562844200    -1.225285555     4.973362553
 C        5.813304883    -1.860825746     2.066886210
 C        7.549461949     0.626397457     2.698157988
 C       -6.297569147     5.502372109     4.128455191
 C       -4.620982615     7.879575261     3.085509882
 C       -2.817645744    13.710493307    -0.134464140
 C       -5.327111235    12.617186525    -1.547545654
 C       -0.577043104    -0.952762052    -1.543862119
 C       -0.640917253    -0.897573599     1.551638612
 H        1.213043376     2.753862454    -0.054379235
 H        0.234245740     4.978266308    -0.044111769
 H       -3.720688156     3.281360460    -0.002496320
 H       -2.782352971     1.040573603     0.083264326
 H       -3.534768958     5.604273755    -0.049727016
 H       -0.674213801     6.787876952    -0.024434598
 H       -0.472077925     9.102488902    -0.007729255
 H       -1.385115061    11.348626845    -0.018386463
 H       -5.400517950     9.670121384    -0.071988617
 H       -4.439200388     7.441042409    -0.138289515
 H       -5.993419073    13.499738027     1.292704155
 H       -4.186599729    11.539386019     2.915215984
 H       -4.687981632    11.286367684     5.180738166
 H       -6.038987262    11.760130967     7.163251252
 H       -8.367471591    14.588465735     4.861160383
 H       -7.129300644    13.967879162     2.864086625
 H       -9.464858311    14.866869248     8.216423009
 H       -9.725158968    14.531603769     6.496101325
 H       -8.413539193    15.650935530     7.003399643
 H       -5.945249973    12.581840140    12.475018968
 H       -5.327544072    12.867518517    10.819377947
 H       -4.866039453    11.392143311    11.732626655
 H       -8.612440771     9.627719911    10.090273945
 H       -8.337016049     8.146642544     8.134669967
 H       -4.281502080     9.521107061     7.669058020
 H       -4.576295232    11.066120938     9.537195396
 H       -7.068753018     7.249538741     6.408944905
 H       -4.129341097     8.283494711     6.167762113
 H       -3.668289919     4.654693582     6.498132534
 H       -1.673612310     3.251919821     6.480852317
 H       -0.644709375     4.701643919     2.558010585
 H       -2.592537232     6.125651264     2.539909988
 H        0.297510804     2.426567198     5.458444835
 H        0.923673931     3.552384566     2.640054771
 H        1.965409813     1.219911734     5.480234623
 H        3.970998031    -0.151370936     5.397000433
 H        4.891997468     1.504478400     1.478707979
 H        2.872574148     2.856520252     1.604651703
 H       -6.549891015    12.762957267     8.641164507
 H       -7.244935510    14.312363085     9.168032861
 H       -9.472837016    13.173093083     9.598582660
 H       -8.847205992    11.671195783     8.941844381
 H       -7.933069376    13.114202292    11.532561791
 H       -8.891420727    11.617700484    11.428412320
 H        2.260304296    -1.024901126    -0.114937767
 H        2.256733992     0.392785001     0.958527158
 H        2.278904570     0.612901817    -0.817661272
 H        7.497448166    -1.810300986     4.906281106
 H        5.770871729    -1.904570358     5.334505669
 H        6.714594542    -0.445529385     5.741844183
 H        6.730013617    -2.516499449     2.102548418
 C        4.591121597    -2.722429537     2.436309566
 C        5.638793621    -1.361327062     0.621341066
 H        7.226142627     1.005739535     1.685197181
 C        7.797294590     1.848900519     3.600473794
 C        8.872411563    -0.138082975     2.513505810
 H       -7.187449237     6.196065736     4.112877713
 C       -6.213818672     4.802016548     2.759293174
 C       -6.539356635     4.440725550     5.216562848
 H       -4.471579683     7.298731771     2.131809904
 C       -5.883862995     8.743962977     2.932947144
 C       -3.404583244     8.801143342     3.290279256
 H       -2.124147503    13.361403621    -0.952323114
 C       -3.325559762    15.113124936    -0.515143270
 C       -2.012698048    13.822662083     1.173560421
 H       -5.622047812    13.707056579    -1.550744085
 C       -4.601682549    12.314488790    -2.870466368
 C       -6.619630805    11.784360404    -1.485474090
 H       -0.039911065    -1.944691505    -1.499597296
 C       -2.088117926    -1.239131064    -1.591357140
 C       -0.169324305    -0.248625141    -2.851763945
 H       -1.747265328    -1.047199728     1.389405552
 C        0.004662956    -2.279669437     1.759723343
 C       -0.461507700    -0.067967860     2.833935135
 H        4.667249036    -3.185528297     3.428397952
 H        4.482495602    -3.548714167     1.719421895
 H        3.646724121    -2.159017352     2.403497486
 H        6.495549879    -0.784443810     0.251751038
 H        4.734981039    -0.748214363     0.489053323
 H        5.530893810    -2.217605943    -0.060169283
 H        6.904750979     2.476691625     3.734902486
 H        8.564521850     2.497628626     3.154319622
 H        8.164522692     1.578014240     4.599245798
 H        8.790876317    -0.987155391     1.822617532
 H        9.285329934    -0.514496496     3.458837646
 H        9.636052114     0.530444127     2.089840129
 H       -6.145904136     5.503284580     1.917512872
 H       -7.117989149     4.201528477     2.587899478
 H       -5.365356398     4.106062157     2.686751340
 H       -6.641303732     4.861782511     6.225753511
 H       -5.745441611     3.680839757     5.252178369
 H       -7.473209278     3.898297462     5.013332061
 H       -6.775973739     8.169459037     2.658101723
 H       -5.736408283     9.490046024     2.137373670
 H       -6.126440753     9.323404565     3.837227432
 H       -2.461081793     8.264335261     3.456199543
 H       -3.537204620     9.505742570     4.121048207
 H       -3.243746133     9.409639170     2.385406626
 H       -3.809867833    15.147954382    -1.499239217
 H       -2.481292851    15.816057389    -0.566574803
 H       -4.026330487    15.530198078     0.220903795
 H       -1.588840207    12.870663387     1.519326423
 H       -2.610222328    14.231732140     2.002315588
 H       -1.163804989    14.506799795     1.037071871
 H       -3.715995852    12.941641646    -3.035906033
 H       -5.273518485    12.500631539    -3.720518357
 H       -4.284107889    11.265180362    -2.954488210
 H       -7.183366009    11.916022318    -0.551864679
 H       -6.439936124    10.709124935    -1.620691839
 H       -7.296753147    12.083423822    -2.298393853
 H       -2.457490206    -1.784349788    -0.713657909
 H       -2.322809825    -1.867979732    -2.462487864
 H       -2.691223652    -0.327778234    -1.703068878
 H        0.912004385    -0.080220283    -2.937454925
 H       -0.668107873     0.721496520    -2.987237613
 H       -0.454129289    -0.864318137    -3.716557426
 H       -0.124528481    -2.956011885     0.905878757
 H       -0.455837108    -2.781157674     2.623151019
 H        1.079550518    -2.216649478     1.980015388
 H       -0.937773989     0.922845833     2.784898461
 H        0.593968840     0.093715680     3.098995562
 H       -0.919877854    -0.585363605     3.687672032

