187   

Si        0.000000000     0.000000000     0.000000000
 C        1.865246638     0.000000000     0.000000000
 C       -0.667733316     1.715386359     0.000000000
 C        0.081931838     2.768059436     0.535111609
 C       -0.422934316     4.067395519     0.535533881
 C       -1.679155224     4.349937872    -0.008196815
 C       -2.429062795     3.293632719    -0.540977879
 C       -1.934943732     1.991773033    -0.529485931
 C       -2.242450559     5.696263876    -0.026814698
 C       -1.624547323     6.782569220     0.466869023
 C       -2.167164728     8.136266730     0.459420976
 C       -1.390675587     9.161453795     1.017046411
 C       -1.856343760    10.471427884     1.038026797
 C       -3.104975476    10.792659330     0.483635300
 C       -3.877669039     9.774052167    -0.078227132
 C       -3.412191819     8.457625500    -0.086618844
Si       -3.643353131    12.542986339     0.553013879
 C       -5.420320252    12.870941046     0.284955460
 C       -5.930170982    13.770085505    -0.565808214
 C       -7.366286389    13.993423177    -0.742354938
 C       -7.791212040    14.963243878    -1.663311404
 C       -9.138788647    15.210337884    -1.865045103
 C      -10.103900385    14.520585751    -1.104711603
 C       -9.684939449    13.555383720    -0.178929548
 C       -8.329422788    13.287541503    -0.018805778
 N      -11.469347927    14.818092498    -1.358328275
 C      -11.822930299    16.238607528    -1.131969348
 C      -12.450806242    13.876229463    -0.794681433
 C      -11.159992624    16.917869389     0.081238443
 C      -11.522597144    16.226414292     1.407173468
 N      -11.167095123    16.996367942     2.605752118
 C       -9.824283913    17.093794723     2.999814801
 C       -8.821235669    16.270719226     2.447726631
 C       -7.503802693    16.396446406     2.862821141
 C       -7.138742676    17.296433339     3.875191548
 C       -8.140215949    18.089366429     4.442865837
 C       -9.459307042    17.994941208     4.022747220
 C      -12.006456906    18.189954164     2.804276760
 C       -5.734561574    17.392111932     4.277864745
 C       -5.264316337    18.211699889     5.229573587
Si       -3.495028520    18.301608547     5.705159060
 C       -2.717989094    16.655409577     5.433494126
 C       -3.319555185    15.534338961     6.020041476
 C       -2.771636095    14.265993590     5.845371884
 C       -1.608751087    14.084967041     5.088354392
 C       -1.001057254    15.208928613     4.516062781
 C       -1.542231599    16.480887541     4.696136857
 C       -1.007836290    12.770202757     4.885057963
 C       -1.510312813    11.630591604     5.389685911
 C       -0.938312223    10.302205193     5.207662448
 C        0.224071362    10.069347674     4.469113994
 C        0.728397649     8.776377707     4.326821987
 C        0.064309589     7.686229898     4.898692183
 C       -1.106585139     7.917973468     5.632752180
 C       -1.597602211     9.210428221     5.788393258
Si        0.716793489     5.974098492     4.720012377
 C        1.771626543     5.828873012     3.186901872
 C        1.761868921     5.533954312     6.247113575
 C       -0.744192246     4.751466092     4.643945964
 C       -2.648817116    19.625146121     4.629574876
 C       -3.343240471    18.812952553     7.528104938
 C       -3.409694845    13.185292395     2.330015397
 C       -2.573352417    13.581401701    -0.626235398
 C       -0.654879670    -0.927618668    -1.527242843
 C       -0.630612804    -0.895113751     1.557224464
 H        1.076730856     2.613772271     0.962142259
 H        0.183870956     4.868849439     0.956092632
 H       -3.411282572     3.489132426    -0.966898950
 H       -2.569455308     1.208434387    -0.952705779
 H       -3.233165073     5.775600748    -0.481486301
 H       -0.631306087     6.697614111     0.921206173
 H       -0.422414598     8.929789261     1.459218437
 H       -1.214219470    11.223616162     1.507633287
 H       -4.857195720     9.971227209    -0.521919084
 H       -4.032083309     7.678614660    -0.525307519
 H       -6.078528947    12.248782730     0.915351387
 H       -5.308580106    14.405924739    -1.207974120
 H       -7.053094653    15.522077648    -2.238550225
 H       -9.458836944    15.938072771    -2.606599589
 H      -10.405883608    13.006430671     0.419207056
 H       -8.023996549    12.524250458     0.698726666
 H      -13.439707486    14.089634382    -1.236979844
 H      -12.544114800    13.908030618     0.301159451
 H      -12.183484549    12.847753799    -1.097806308
 H      -12.986518564    18.064181670     2.317121270
 H      -11.543227795    19.111661810     2.414658684
 H      -12.199054378    18.318667954     3.885643869
 H       -9.060809794    15.546853046     1.671336255
 H       -6.741668902    15.768278315     2.395614207
 H       -7.888116214    18.797204616     5.233369709
 H      -10.206515939    18.622717454     4.495943728
 H       -5.083803032    16.701575785     3.720238867
 H       -5.926303849    18.899027280     5.773986441
 H       -4.237735825    15.610466768     6.613098037
 H       -3.254012350    13.413292051     6.321144787
 H       -0.093230559    15.092771592     3.927994654
 H       -1.016093162    17.322426099     4.237775042
 H       -0.097666816    12.764045266     4.280930319
 H       -2.423203378    11.649052646     5.994532330
 H        0.750099044    10.900163934     4.003380314
 H        1.647330467     8.654825334     3.747438019
 H       -1.667218432     7.104956179     6.103330100
 H       -2.507951816     9.370846195     6.363120065
 H      -11.526823682    16.787012059    -2.058991834
 H      -12.928053964    16.330277170    -1.062736932
 H      -10.057637413    16.933304007    -0.041079655
 H      -11.462901606    17.980956061     0.110152250
 H      -12.618143962    16.025415824     1.449427916
 H      -11.027475454    15.228135657     1.469104028
 H        2.262798008    -1.029793494    -0.038998047
 H        2.278459393     0.482044592     0.902939299
 H        2.258611897     0.541334758    -0.879878905
 H        2.063655221     4.779630505     3.002062924
 H        2.698907735     6.421288673     3.275049616
 H        1.228314922     6.191950705     2.295996802
 H        2.118655076     4.476209490     6.083820573
 C        2.999603222     6.436862120     6.400888477
 C        0.962201923     5.568522541     7.562232665
 H       -1.172570559     4.730573736     5.688438069
 C       -1.865819830     5.187605763     3.686644176
 C       -0.321316046     3.316513263     4.280310610
 H       -1.548716827    19.568764123     4.871962110
 C       -2.827815921    19.358200192     3.123570665
 C       -3.127047019    21.055974217     4.936364383
 H       -3.820134328    19.833745443     7.600240105
 C       -4.096794458    17.872415620     8.485542050
 C       -1.882128835    18.933421355     7.996524857
 H       -2.323947311    13.047876560     2.600719193
 C       -3.753862802    14.679412880     2.440292477
 C       -4.259764433    12.383978663     3.331902603
 H       -3.003107665    14.625047116    -0.593419579
 C       -1.096071506    13.669555119    -0.202704724
 C       -2.647179756    13.077387700    -2.078621075
 H       -1.779357359    -0.935379955    -1.428312911
 C       -0.301396529    -0.216624605    -2.846165557
 C       -0.182030295    -2.390386264    -1.605884595
 H       -0.226417683    -1.946305913     1.494115504
 C       -0.109435831    -0.262027402     2.860234440
 C       -2.166262570    -0.975856952     1.626739888
 H        3.675248642     6.401882280     5.536985701
 H        3.594793923     6.115955520     7.267989066
 H        2.740023353     7.489977462     6.580484301
 H        0.120173483     4.864922678     7.579011609
 H        0.570046111     6.568054124     7.798300662
 H        1.611084757     5.287654715     8.404539550
 H       -2.239760171     6.203738406     3.871357142
 H       -2.731334458     4.517610393     3.787713623
 H       -1.569990894     5.138909881     2.628612845
 H        0.464207159     2.909318765     4.927571523
 H        0.017406642     3.226958038     3.237214265
 H       -1.183670810     2.640037930     4.376391473
 H       -2.470190715    18.370170120     2.804095460
 H       -2.260673842    20.095835331     2.539257844
 H       -3.875745258    19.446635949     2.799363778
 H       -2.942073740    21.364041741     5.973288418
 H       -4.195467759    21.204365447     4.726850231
 H       -2.588243549    21.775777776     4.303323718
 H       -5.155987939    17.740241209     8.226041203
 H       -4.078539656    18.281527995     9.505792647
 H       -3.640161324    16.874621403     8.548814778
 H       -1.295518062    19.657072157     7.416056484
 H       -1.344805955    17.974521663     7.973124106
 H       -1.848387073    19.277562535     9.040341166
 H       -3.097678043    15.322579316     1.840492476
 H       -3.630106743    15.010946228     3.483877015
 H       -4.793211663    14.905722552     2.164309544
 H       -4.043395084    11.306488555     3.320787125
 H       -5.340239730    12.515861503     3.187338164
 H       -4.047620624    12.725525170     4.355468344
 H       -0.956826864    14.083196049     0.804811948
 H       -0.549598204    14.334736732    -0.886335922
 H       -0.581039924    12.699790767    -0.245153970
 H       -3.670177664    13.035413260    -2.476814574
 H       -2.204649443    12.078941812    -2.206287208
 H       -2.084955827    13.749323887    -2.741866408
 H       -0.651801598     0.824676526    -2.886730101
 H       -0.775478985    -0.733566843    -3.692608163
 H        0.776988170    -0.209597556    -3.053714874
 H       -0.467076636    -2.987433766    -0.730104776
 H        0.904364945    -2.483579164    -1.735382579
 H       -0.637963172    -2.885455995    -2.475733216
 H        0.985732142    -0.252353739     2.931193761
 H       -0.467543622    -0.836345525     3.726675126
 H       -0.464738622     0.768607223     3.006080218
 H       -2.613626761    -1.504979521     0.775858510
 H       -2.643318050     0.012479728     1.695537264
 H       -2.473802664    -1.528527999     2.526219219

