187   

Si        0.000000000     0.000000000     0.000000000
 C        1.867415061     0.000000000     0.000000000
 C       -0.646340681     1.723068030     0.000000000
 C        0.013486384     2.704108856    -0.749637736
 C       -0.454376671     4.016479978    -0.767448998
 C       -1.584835185     4.382774151    -0.031141713
 C       -2.249393772     3.397954274     0.709411538
 C       -1.795915344     2.080780987     0.714078019
 C       -2.103450540     5.746810273    -0.025682921
 C       -1.556125223     6.763190616    -0.713878784
 C       -2.054902662     8.133174366    -0.724779952
 C       -1.375584476     9.087781962    -1.493666693
 C       -1.811063677    10.409499740    -1.538083619
 C       -2.920417968    10.815319554    -0.786708353
 C       -3.588625681     9.867526298    -0.003413690
 C       -3.158240681     8.541731246     0.029170239
Si       -3.510168407    12.557881051    -0.833026578
 C       -4.285983026    13.017377677     0.756629736
 C       -3.925956418    12.487234842     1.932891441
 C       -4.535075814    12.842488349     3.214285303
 C       -4.063993126    12.211233602     4.376403111
 C       -4.603780758    12.508968761     5.615113693
 C       -5.659065160    13.438913801     5.722303258
 C       -6.125297928    14.079476735     4.564854882
 C       -5.548251884    13.795052604     3.330922005
 N       -6.171960092    13.704331562     7.015625516
 C       -6.598568944    12.497406643     7.761482561
 C       -7.124190629    14.821611003     7.125890941
 C       -7.275316862    11.393817212     6.928280187
 C       -8.557833512    11.884034424     6.234588398
 N       -9.275306121    10.828155484     5.507712566
 C       -8.753982925    10.349697576     4.294757824
 C       -7.824336135    11.096654996     3.543317892
 C       -7.320398405    10.607296808     2.347122923
 C       -7.750421414     9.379454377     1.827051517
 C       -8.694975030     8.652847098     2.559535002
 C       -9.198596158     9.121210589     3.764366761
 C       -9.906033173     9.839766897     6.398663268
 C       -7.200363019     8.887060411     0.560476348
 C       -7.569328620     7.723242576     0.010948880
Si       -7.019014863     6.928728748    -1.538912606
 C       -6.566548591     5.190600077    -1.114825872
 C       -6.102153282     4.874992646     0.166634653
 C       -5.759141056     3.562742352     0.491253473
 C       -5.853453234     2.544919663    -0.461058173
 C       -6.308212156     2.866236363    -1.747074147
 C       -6.659825823     4.173111174    -2.072251606
 C       -5.507814952     1.157550569    -0.174691062
 C       -5.059718910     0.697927869     1.006027372
 C       -4.721126364    -0.697774056     1.264422889
 C       -4.837811822    -1.689112334     0.285316834
 C       -4.505787234    -3.012907566     0.565802821
 C       -4.024128697    -3.375839612     1.829972972
 C       -3.895333669    -2.382408243     2.806729426
 C       -4.238848274    -1.060934678     2.527543350
Si       -3.600914767    -5.140659370     2.144862933
 C       -5.020907556    -6.221360001     1.598648589
 C       -2.012804969    -5.560204872     1.177288447
 C       -3.245181815    -5.515276976     3.977483486
 C       -8.519037313     6.914657868    -2.716221852
 C       -5.506517640     7.754335981    -2.349724403
 C       -2.078824267    13.743191284    -1.221308130
 C       -4.838621406    12.718533898    -2.185769002
 C       -0.620413224    -0.901662256    -1.556481323
 C       -0.639362443    -0.934899484     1.528287137
 H        0.907042995     2.481158913    -1.339064293
 H        0.074683554     4.758280174    -1.362504124
 H       -3.141472880     3.659181484     1.276145477
 H       -2.373391883     1.348199231     1.287050432
 H       -2.999209605     5.898735876     0.584088485
 H       -0.664194771     6.599920332    -1.326236221
 H       -0.503380243     8.793444075    -2.073734764
 H       -1.250711969    11.103954250    -2.169138899
 H       -4.458476095    10.129226767     0.610715372
 H       -3.693415052     7.822896840     0.649495144
 H       -5.071260781    13.784526173     0.687452721
 H       -3.135596768    11.727768488     2.027085542
 H       -3.260879387    11.476275655     4.304278074
 H       -4.212225142    12.033251141     6.510899090
 H       -6.932831542    14.802958261     4.614455843
 H       -5.914812790    14.314633428     2.444550395
 H       -7.291847966    15.043641543     8.194333205
 H       -8.099730971    14.640250590     6.649489866
 H       -6.674258508    15.728282628     6.682148743
 H      -10.167025433    10.299723458     7.365308932
 H       -9.267082234     8.962811165     6.594499666
 H      -10.852684287     9.496637326     5.940976940
 H       -7.469072962    12.058639681     3.906618594
 H       -6.576909949    11.199035912     1.806454416
 H       -9.054700155     7.693417656     2.182685343
 H       -9.936421090     8.524951132     4.290021417
 H       -6.461617341     9.557594731     0.105735177
 H       -8.332465063     7.094945885     0.509474227
 H       -6.002931513     5.633729070     0.949882116
 H       -5.420146887     3.335518230     1.499943715
 H       -6.384009057     2.088254936    -2.504076007
 H       -7.000673555     4.366640811    -3.093050998
 H       -5.635579057     0.475619243    -1.021646344
 H       -4.928574835     1.371231173     1.856716318
 H       -5.204065584    -1.434863071    -0.708167763
 H       -4.639881047    -3.744481372    -0.236918362
 H       -3.522308318    -2.604000012     3.810570067
 H       -4.131273312    -0.305974252     3.303974697
 H       -5.678470559    12.079812720     8.238027353
 H       -7.264006247    12.802218357     8.597576369
 H       -6.573576667    11.000198012     6.163459756
 H       -7.501860748    10.532480519     7.583673327
 H       -9.259306487    12.321609688     6.981268958
 H       -8.321539045    12.708120522     5.520912747
 H        2.266198137    -1.028935544     0.034228172
 H        2.259477600     0.539451966     0.881192749
 H        2.279146992     0.487859034    -0.899880034
 H       -4.823152624    -7.285745201     1.815141423
 H       -5.201384050    -6.130692146     0.512887338
 H       -5.957072909    -5.942184855     2.115128923
 H       -1.194651468    -4.952750263     1.665400013
 C       -1.622254337    -7.045768707     1.280682211
 C       -2.065549745    -5.163441903    -0.308337415
 H       -3.095846767    -6.635019229     4.019093436
 C       -1.964520571    -4.857333660     4.522926021
 C       -4.423521856    -5.171281362     4.906496107
 H       -8.122166414     6.594177279    -3.721412893
 C       -9.606607048     5.911445875    -2.287279961
 C       -9.178327516     8.296883789    -2.876286262
 H       -5.063339808     8.421740230    -1.550819165
 C       -4.421447557     6.742125381    -2.762010140
 C       -5.817756510     8.640459446    -3.568010042
 H       -1.696171770    13.448894036    -2.241332489
 C       -2.512315508    15.218700841    -1.286766434
 C       -0.919141117    13.608853036    -0.218040308
 H       -5.095467360    13.815435384    -2.241052574
 C       -4.342263714    12.273473881    -3.571893205
 C       -6.123112993    11.945288850    -1.837695935
 H       -0.144494538    -1.923965115    -1.530090510
 C       -2.146746331    -1.084698565    -1.580163163
 C       -0.186381029    -0.205391286    -2.859649688
 H       -1.764545699    -0.985899449     1.418842016
 C       -0.110722550    -2.377798444     1.615831867
 C       -0.324718660    -0.216007968     2.853128550
 H       -1.482670844    -7.390461936     2.313283874
 H       -0.663570311    -7.218051873     0.769795560
 H       -2.349365411    -7.714073573     0.800844041
 H       -2.224498272    -4.085765516    -0.462136529
 H       -2.838569836    -5.701281708    -0.871486808
 H       -1.108845454    -5.401700426    -0.795556608
 H       -1.058625747    -5.162875161     3.982873437
 H       -1.808339327    -5.152531516     5.570872997
 H       -2.000326848    -3.760035324     4.516445357
 H       -5.354326799    -5.686794743     4.634268637
 H       -4.644939431    -4.096432954     4.948610173
 H       -4.193778080    -5.479376728     5.936621431
 H       -9.240451688     4.881206150    -2.182751927
 H      -10.404957495     5.877068346    -3.041943002
 H      -10.090138906     6.186177184    -1.339859929
 H       -8.499358577     9.063247941    -3.271191263
 H       -9.598152351     8.680600631    -1.935221257
 H      -10.015387483     8.234780432    -3.585547954
 H       -4.071207860     6.111264536    -1.931055531
 H       -3.529272036     7.275310183    -3.123121866
 H       -4.736531577     6.074122980    -3.572464733
 H       -6.501116786     9.469001638    -3.340911962
 H       -6.235494379     8.079498087    -4.413128428
 H       -4.889524603     9.104123871    -3.935298505
 H       -3.284763615    15.413854411    -2.041312556
 H       -1.653878611    15.850372422    -1.558103140
 H       -2.879607466    15.599382638    -0.323443168
 H       -0.512877735    12.589838397    -0.152630646
 H       -1.197060599    13.918693900     0.799809631
 H       -0.082281597    14.254814007    -0.519034670
 H       -3.478480351    12.846715359    -3.931397239
 H       -5.135524300    12.415941879    -4.319892341
 H       -4.072980249    11.207571445    -3.608038630
 H       -6.587332157    12.270691171    -0.896361983
 H       -5.962225603    10.858395214    -1.771608114
 H       -6.879944030    12.096918836    -2.619983956
 H       -2.521072358    -1.681418042    -0.735593866
 H       -2.451283665    -1.613994430    -2.493330173
 H       -2.694046770    -0.130698590    -1.578292740
 H        0.901160240    -0.100526197    -2.957894668
 H       -0.631765200     0.793437754    -2.976149788
 H       -0.517974794    -0.792219774    -3.727838644
 H       -0.386187013    -2.990296429     0.746517855
 H       -0.541664604    -2.877157065     2.496470215
 H        0.978657582    -2.432776605     1.734985996
 H       -0.694871109     0.817606496     2.890017645
 H        0.749454060    -0.187052181     3.077874247
 H       -0.803560522    -0.745493343     3.688962529

