187   

Si        0.000000000     0.000000000     0.000000000
 C        1.865121136     0.000000000     0.000000000
 C       -0.682199156     1.709519204     0.000000000
 C        0.101264503     2.798455370    -0.395320629
 C       -0.425478523     4.090029153    -0.391643739
 C       -1.746240169     4.321835714     0.001162116
 C       -2.531570357     3.228820684     0.391736001
 C       -2.008850219     1.938697610     0.389142847
 C       -2.341119507     5.653840216     0.021470937
 C       -1.703913989     6.784699956    -0.326579039
 C       -2.305114350     8.114241833    -0.303934583
 C       -1.529053480     9.213531695    -0.692362853
 C       -2.062275051    10.500805947    -0.686065604
 C       -3.381770901    10.719698537    -0.276096325
 C       -4.158955311     9.622106363     0.115380137
 C       -3.626453919     8.334845779     0.096560215
Si       -4.131932849    12.398646687    -0.249681590
 C       -5.251672599    12.593031717     1.183474164
 C       -5.098017470    11.960022561     2.353903597
 C       -5.997407737    12.119764005     3.496897333
 C       -5.732625796    11.402475495     4.671622609
 C       -6.552364421    11.517375337     5.782597340
 C       -7.704092868    12.332816747     5.740796344
 C       -7.957541706    13.068107855     4.568048844
 C       -7.092219838    12.987925854     3.484818711
 N       -8.530642068    12.442085085     6.877141281
 C       -8.634237118    11.243685213     7.736806021
 C       -9.822447135    13.123073130     6.678781435
 C       -8.951719408     9.922942067     7.010019066
 C      -10.456331834     9.694984617     6.766900009
 N      -10.797707937     9.169914009     5.423604889
 C      -10.658512414    10.173848728     4.409625816
 C      -11.731004669    11.072972970     4.284398786
 C      -11.682611680    12.076871965     3.329833851
 C      -10.560970724    12.227903719     2.500616859
 C       -9.507961758    11.317256482     2.621109463
 C       -9.564380144    10.277330281     3.544613660
 C      -10.126901357     7.894545394     5.115550861
 C      -10.567640802    13.307622109     1.510084538
 C       -9.565201511    13.561366020     0.659587662
Si       -9.558277249    14.905150317    -0.582565929
 C       -9.085321617    14.186841935    -2.206618178
 C       -9.572519399    12.923703529    -2.567475923
 C       -9.227141306    12.360288198    -3.792911439
 C       -8.391985895    13.044381163    -4.686803951
 C       -7.912128478    14.306043843    -4.324794888
 C       -8.256781648    14.873964113    -3.098803960
 C       -8.058273026    12.413065478    -5.958750089
 C       -7.271723465    12.961100728    -6.900451334
 C       -6.937420877    12.330372086    -8.172925618
 C       -7.415732106    11.069242208    -8.537335785
 C       -7.070920812    10.503140883    -9.764517656
 C       -6.234330711    11.185930876   -10.653023179
 C       -5.753125810    12.451164484   -10.289585198
 C       -6.102923840    13.015620902    -9.066174744
Si       -5.770230354    10.451954177   -12.276340385
 C       -6.181749808     8.634166293   -12.349612351
 C       -6.708758530    11.349557127   -13.667811907
 C       -3.903167771    10.714160500   -12.538996427
 C      -11.289665971    15.677774390    -0.759935868
 C       -8.374504103    16.285175118    -0.027118797
 C       -2.798953007    13.750426139    -0.221063916
 C       -5.202700022    12.602719130    -1.811124471
 C       -0.620615937    -0.915888920    -1.548968112
 C       -0.650352909    -0.914221094     1.538455016
 H        1.141134860     2.679614053    -0.711864295
 H        0.205895374     4.921062932    -0.700745514
 H       -3.563223218     3.387223897     0.700040236
 H       -2.669889899     1.125966307     0.702700428
 H       -3.384190052     5.682699836     0.350376172
 H       -0.661598178     6.758183208    -0.656901656
 H       -0.498377888     9.063658548    -1.007378670
 H       -1.411782800    11.318507530    -1.007338645
 H       -5.198143217     9.734868872     0.445272982
 H       -4.251482715     7.497536508     0.400784601
 H       -6.086065172    13.292670343     1.018177805
 H       -4.275394006    11.257057980     2.545487912
 H       -4.863743607    10.744708802     4.718212594
 H       -6.296396665    10.979064279     6.690190741
 H       -8.827931352    13.713607346     4.491770207
 H       -7.297755578    13.599121124     2.603314899
 H      -10.394401103    13.133064598     7.620162491
 H      -10.446963932    12.662028735     5.892898876
 H       -9.634202504    14.178267157     6.408162548
 H      -10.453145410     7.142312056     5.854367327
 H       -9.027161214     7.933400272     5.122990639
 H      -10.458086286     7.545952835     4.121433317
 H      -12.600298787    10.958780521     4.929487093
 H      -12.527175216    12.757649302     3.228019822
 H       -8.629516472    11.403133387     1.976602879
 H       -8.738494975     9.573301946     3.608183152
 H      -11.489950289    13.903165577     1.535652554
 H       -8.648206567    12.946972726     0.656111630
 H      -10.224099322    12.342256854    -1.906269692
 H       -9.612362900    11.377240779    -4.057829708
 H       -7.262254043    14.857950648    -5.001146724
 H       -7.852360262    15.864064858    -2.871629044
 H       -8.502429680    11.424749437    -6.110185913
 H       -6.827134704    13.949126090    -6.749304367
 H       -8.065005690    10.514740625    -7.862019582
 H       -7.475518159     9.513370277    -9.993766466
 H       -5.095516344    13.030819264   -10.943549363
 H       -5.720190152    13.999651452    -8.802241627
 H       -7.657765498    11.147014590     8.270838582
 H       -9.387074664    11.437706167     8.531543992
 H       -8.411055894     9.897877385     6.040246581
 H       -8.536231724     9.079398477     7.590805545
 H      -10.860465424     8.971239217     7.509262957
 H      -11.025697892    10.638894015     6.915668141
 H        2.262799255    -1.029265879     0.051774827
 H        2.260172177     0.553181067     0.871587389
 H        2.275821225     0.469667074    -0.910814981
 H       -5.860599109     8.191798357   -13.309575413
 H       -7.266395625     8.455087432   -12.247633780
 H       -5.670570355     8.079538686   -11.541602770
 H       -6.421210536    10.818601437   -14.621049969
 C       -8.236977421    11.249927854   -13.508393920
 C       -6.324223490    12.832704395   -13.814323842
 H       -3.743551812    11.831671819   -12.530352047
 C       -3.057976001    10.109342931   -11.403384599
 C       -3.391170222    10.175931640   -13.886851224
 H      -11.589193279    16.014005354     0.274418349
 C      -11.309650760    16.907918835    -1.684531326
 C      -12.340841436    14.670377195    -1.259729479
 H       -8.462601090    17.091576799    -0.812262311
 C       -8.772633186    16.895895543     1.329515771
 C       -6.901189279    15.853342200     0.044212310
 H       -2.150906404    13.567204747    -1.126661525
 C       -3.369912801    15.175942173    -0.331192767
 C       -1.907877122    13.666207701     1.031422978
 H       -5.697840682    13.613795054    -1.722135942
 C       -4.399140661    12.582374674    -3.121483513
 C       -6.311381716    11.538762401    -1.888547573
 H       -0.137104256    -1.934696215    -1.517435487
 C       -2.147100999    -1.112435841    -1.572495028
 C       -0.191841303    -0.223971699    -2.855870346
 H       -1.774872035    -0.925127510     1.440461653
 C       -0.173237458    -2.374563429     1.632009956
 C       -0.298772602    -0.186848783     2.848901371
 H       -8.606292658    10.216781575   -13.478140406
 H       -8.736888991    11.729487915   -14.362168958
 H       -8.606797306    11.762061964   -12.608420506
 H       -5.257028672    12.988693247   -14.016466818
 H       -6.592529005    13.432024930   -12.932872006
 H       -6.864549294    13.278197199   -14.662393085
 H       -3.331223839    10.490163633   -10.408758112
 H       -1.997514897    10.360776536   -11.547380786
 H       -3.112955544     9.013303597   -11.363907735
 H       -3.901315659    10.616184672   -14.753283648
 H       -3.471751521     9.083987239   -13.970401092
 H       -2.324100210    10.414620703   -14.005031318
 H      -10.671291455    17.728509355    -1.333304424
 H      -12.328655354    17.317790006    -1.743134659
 H      -11.016539245    16.673193602    -2.717729517
 H      -12.420752413    13.769888911    -0.635863235
 H      -12.155560456    14.340561131    -2.292450659
 H      -13.337415520    15.134145078    -1.260668677
 H       -9.782072521    17.325481984     1.337155349
 H       -8.090337710    17.719128554     1.586050247
 H       -8.710474811    16.176070580     2.158801573
 H       -6.532057371    15.394645274    -0.883329816
 H       -6.705599660    15.152523825     0.869000702
 H       -6.260031700    16.727296158     0.229457252
 H       -3.951182519    15.340777434    -1.247831622
 H       -2.550152142    15.908025004    -0.352279541
 H       -4.002993293    15.448966414     0.524685178
 H       -1.415202042    12.691848014     1.153652853
 H       -2.458214884    13.875108167     1.960495188
 H       -1.103369137    14.412511870     0.974920612
 H       -3.643201455    13.374292995    -3.183426235
 H       -5.076705989    12.733980591    -3.976157144
 H       -3.896263512    11.621983629    -3.301464352
 H       -6.974718687    11.532113992    -1.013103559
 H       -5.922630155    10.521184653    -2.027839094
 H       -6.958783307    11.740750101    -2.757229310
 H       -2.525190010    -1.688931987    -0.718816446
 H       -2.439912355    -1.671508352    -2.473132230
 H       -2.699539886    -0.162719791    -1.609641319
 H        0.895804536    -0.117283256    -2.956817846
 H       -0.637355652     0.774129123    -2.976365600
 H       -0.523818885    -0.814934520    -3.721494354
 H       -0.450029439    -2.979215478     0.758754112
 H       -0.633102939    -2.864374701     2.502645784
 H        0.912662373    -2.462430184     1.769206971
 H       -0.658717952     0.851603866     2.878777374
 H        0.779960902    -0.168329673     3.053440557
 H       -0.766517601    -0.698828601     3.701795764

