187   

Si        0.000000000     0.000000000     0.000000000
 C        1.865020877     0.000000000     0.000000000
 C       -0.670820521     1.714732278     0.000000000
 C        0.055763390     2.759236918     0.582265212
 C       -0.448316226     4.059370428     0.584596774
 C       -1.691098283     4.344696378     0.012632014
 C       -2.420687402     3.296573669    -0.563477538
 C       -1.919984153     1.997290038    -0.567182873
 C       -2.258748182     5.688716746    -0.008498174
 C       -1.665818179     6.778934566     0.507007425
 C       -2.235354049     8.122193095     0.484772871
 C       -3.478501934     8.403649285    -0.088142468
 C       -3.986093458     9.702549171    -0.087830768
 C       -3.266361366    10.746244984     0.502013968
 C       -2.020816044    10.466960935     1.080493649
 C       -1.511284000     9.171480558     1.066624838
Si       -3.908824591    12.468751421     0.518462795
 C       -3.460911680    13.343126036     2.061736857
 C       -3.292663814    12.733362606     3.242574900
 C       -2.934210371    13.427418829     4.481260177
 C       -2.786676619    12.674085903     5.656809877
 C       -2.448738718    13.282082596     6.854290396
 C       -2.283226484    14.680297242     6.915922709
 C       -2.426162168    15.435894242     5.743892429
 C       -2.727398083    14.806922332     4.539861149
 N       -1.936168412    15.242799982     8.175245196
 C       -2.971626305    15.048795261     9.216903080
 C       -1.433723626    16.627805167     8.136838607
 C       -4.362173564    15.596504369     8.846460178
 C       -5.292096657    14.487628526     8.312345720
 N       -6.347099590    14.982462599     7.410549191
 C       -7.206722011    15.969805121     7.924311428
 C       -7.623506537    15.892820580     9.271408441
 C       -8.469657247    16.853422538     9.799382293
 C       -8.971198992    17.895002574     9.004919267
 C       -8.581899545    17.951744224     7.664231336
 C       -7.720791417    17.005847025     7.122503653
 C       -5.884654112    15.150391275     6.023554131
 C       -9.862173105    18.883551438     9.614659469
 C      -10.399872825    19.918169131     8.955354507
Si      -11.515334904    21.177360919     9.668136656
 C      -10.913163636    22.863150287     9.244150574
 C       -9.580648408    23.065994452     8.864988532
 C       -9.125960379    24.342841681     8.544220337
 C       -9.986376275    25.446727672     8.604680725
 C      -11.314541170    25.241203156     8.989584318
 C      -11.774373265    23.964087181     9.306989027
 C       -9.463771324    26.764721113     8.259222867
 C      -10.183051801    27.899869797     8.272201806
 C       -9.662066976    29.218447285     7.927082556
 C       -8.335575076    29.428568887     7.541902283
 C       -7.880093450    30.707198453     7.220441022
 C       -8.745531502    31.804301818     7.271557105
 C      -10.076953696    31.596130341     7.656698783
 C      -10.527177533    30.319735217     7.981895098
Si       -8.160664757    33.498318880     6.850500173
 C       -6.485930267    33.462658366     6.029768379
 C       -9.443704766    34.299566129     5.695021217
 C       -8.039794205    34.540903032     8.438650717
 C      -13.254353473    20.927569492     8.936033478
 C      -11.621280256    21.012447402    11.559846017
 C       -3.164556223    13.416053940    -0.952796054
 C       -5.804435920    12.475584235     0.356896133
 C       -0.645764504    -0.927732426    -1.532218238
 C       -0.631701920    -0.902748074     1.551928167
 H        1.033661229     2.597678640     1.044563827
 H        0.138939093     4.854935150     1.039650939
 H       -3.391328675     3.496552230    -1.013399838
 H       -2.536168159     1.221114268    -1.029282517
 H       -3.238519153     5.763261850    -0.489549241
 H       -0.685954388     6.704973872     0.987727163
 H       -4.061939752     7.606837830    -0.545597578
 H       -4.959838171     9.861635226    -0.559003654
 H       -1.414342963    11.245564252     1.555607128
 H       -0.540130119     8.973962587     1.516870462
 H       -3.351909579    14.433252213     1.958146318
 H       -3.403429579    11.647071407     3.371646567
 H       -2.927359213    11.592716366     5.625883950
 H       -2.296435151    12.683636250     7.750176969
 H       -2.302456415    16.514639170     5.761004719
 H       -2.814826216    15.410484630     3.635533151
 H       -0.995942829    16.869541140     9.121676268
 H       -2.198651982    17.384133827     7.902066071
 H       -0.617817863    16.702871312     7.396834252
 H       -5.266625798    14.281434685     5.727639340
 H       -5.281935773    16.058724472     5.864120265
 H       -6.756559722    15.166288750     5.345899694
 H       -7.279228722    15.077991029     9.901718714
 H       -8.761753365    16.786768102    10.847686701
 H       -8.957607321    18.750972809     7.023166565
 H       -7.441097099    17.089550599     6.077115836
 H      -10.049022334    18.696027521    10.680194790
 H      -10.199769821    20.072848789     7.881911236
 H       -8.863419484    22.240798948     8.804968627
 H       -8.088512192    24.481623712     8.246236554
 H      -12.003486782    26.081842377     9.044470637
 H      -12.823474122    23.864771652     9.598994244
 H       -8.407131487    26.778354259     7.976535321
 H      -11.239783436    27.885784525     8.554910706
 H       -7.642794552    28.590643973     7.490136444
 H       -6.831572025    30.809068946     6.927329997
 H      -10.798893038    32.415702365     7.713779498
 H      -11.564322119    30.178105454     8.279883998
 H       -3.023346426    13.960001279     9.442709349
 H       -2.607168201    15.530526293    10.151803619
 H       -4.829785570    16.084592785     9.721593264
 H       -4.266155859    16.400739522     8.091688965
 H       -4.705524717    13.714402549     7.763377146
 H       -5.777344283    13.949198766     9.157365305
 H        2.263102283    -1.028955656    -0.054932052
 H        2.277498760     0.468168489     0.910614041
 H        2.258489029     0.555981370    -0.870742193
 H       -6.161147713    34.478997242     5.743604721
 H       -6.508482458    32.850687986     5.109810781
 H       -5.712660288    33.041873870     6.696116982
 H      -10.410100742    34.326946732     6.277978922
 C       -9.093359915    35.743978646     5.295624388
 C       -9.687148058    33.471404044     4.420374180
 H       -7.609282973    35.533719833     8.118965498
 C       -9.398886029    34.805213578     9.110786335
 C       -7.088147217    33.920891047     9.478415554
 H      -13.912960640    21.701046022     9.426919987
 C      -13.293543810    21.166217762     7.416047031
 C      -13.841391044    19.538559169     9.241986663
 H      -11.895489594    19.936438215    11.761709532
 C      -10.275959207    21.303316604    12.250241974
 C      -12.703643592    21.905232291    12.192647024
 H       -3.595178383    14.457712455    -0.904740543
 C       -1.632213404    13.527634168    -0.860185320
 C       -3.540720332    12.805661731    -2.313977915
 H       -6.036941470    11.960517467    -0.619527708
 C       -6.489973950    11.691546652     1.490224139
 C       -6.403134870    13.892480772     0.299990945
 H       -1.771469605    -0.920595137    -1.448484759
 C       -0.265043370    -0.229156565    -2.850154091
 C       -0.191135604    -2.397004419    -1.596096681
 H       -0.166141725    -1.929914304     1.522168134
 C       -0.190049798    -0.216281296     2.857395891
 C       -2.161518018    -1.071260889     1.574924077
 H       -8.973150873    36.415940367     6.155259167
 H       -9.901357442    36.170224407     4.683280323
 H       -8.180977313    35.811104002     4.688341597
 H       -9.995648384    32.436632553     4.627708799
 H       -8.809711474    33.429020536     3.761606584
 H      -10.497325542    33.920031154     3.828057992
 H      -10.116416221    35.317790735     8.457738064
 H       -9.263591171    35.456010683     9.987091509
 H       -9.875944563    33.887649263     9.482978363
 H       -6.066974675    33.775188976     9.103393421
 H       -7.443919361    32.952512469     9.858915931
 H       -7.002753915    34.582120763    10.352667757
 H      -12.924831115    22.158779189     7.121156200
 H      -14.328630609    21.103050320     7.051465271
 H      -12.721600399    20.417792249     6.850493672
 H      -13.926977785    19.328833584    10.315904290
 H      -13.263146310    18.720381038     8.788677287
 H      -14.858070752    19.460408943     8.831313119
 H       -9.449570408    20.678873175    11.884164149
 H      -10.355413971    21.109845278    13.329071466
 H       -9.963595836    22.352660476    12.147708602
 H      -13.715107549    21.690851535    11.824994134
 H      -12.512377754    22.977840165    12.047839439
 H      -12.733420078    21.745267771    13.280276617
 H       -1.283869952    14.009207293     0.063552737
 H       -1.247992341    14.138169880    -1.689834640
 H       -1.127700248    12.553552451    -0.938012830
 H       -4.622687294    12.779734771    -2.496178590
 H       -3.154468540    11.784811548    -2.447488428
 H       -3.107161745    13.404756500    -3.128008491
 H       -6.157180830    10.646950394     1.563739989
 H       -7.575661871    11.656536052     1.321992109
 H       -6.345511975    12.153821784     2.477860073
 H       -6.021941980    14.493824955    -0.535092709
 H       -6.242794023    14.462226831     1.226016922
 H       -7.492562891    13.833780548     0.161000442
 H       -0.599522678     0.816765941    -2.901208965
 H       -0.735341648    -0.744179823    -3.699865380
 H        0.816014764    -0.239132298    -3.043457257
 H       -0.494677241    -2.984448243    -0.719920672
 H        0.895450871    -2.505180276    -1.711435186
 H       -0.642770034    -2.891666495    -2.468332675
 H        0.899543120    -0.133281702     2.959374425
 H       -0.535774217    -0.798040892     3.724014948
 H       -0.614809792     0.791066684     2.975019559
 H       -2.548940805    -1.646248068     0.724297023
 H       -2.697013528    -0.111553643     1.603690300
 H       -2.466066145    -1.618846777     2.478685843

