187   

Si        0.000000000     0.000000000     0.000000000
 C        1.865539878     0.000000000     0.000000000
 C       -0.659227106     1.719278898     0.000000000
 C        0.107290827     2.770214868    -0.515148748
 C       -0.386872215     4.073946323    -0.517672662
 C       -1.658902372     4.357569068    -0.012835249
 C       -2.427973356     3.302980503     0.496397219
 C       -1.937236113     1.999689433     0.500285861
 C       -2.213941608     5.707207159     0.003419815
 C       -1.576394640     6.797846421    -0.454783302
 C       -2.121660901     8.150955318    -0.443347212
 C       -3.391002233     8.450423853     0.057686042
 C       -3.870276802     9.760642595     0.047621067
 C       -3.094647013    10.796534134    -0.480076909
 C       -1.821607281    10.498455143    -0.986861776
 C       -1.341409226     9.192746028    -0.963453968
Si       -3.681116954    12.539398878    -0.516453265
 C       -3.122249356    13.386070827    -2.038634235
 C       -2.914911967    12.769268418    -3.209458962
 C       -2.467952454    13.446110999    -4.427026761
 C       -2.286651293    12.689070865    -5.592561822
 C       -1.864974076    13.278873063    -6.773001205
 C       -1.564235771    14.657671421    -6.815940010
 C       -1.765225703    15.420379620    -5.650356233
 C       -2.247197993    14.824328057    -4.492269131
 N       -1.136221618    15.246438365    -8.022372916
 C       -0.338277694    14.394058624    -8.928944917
 C       -0.628540260    16.626645954    -7.929990706
 C        0.849647713    13.655659302    -8.282928767
 C        2.132202437    14.504928721    -8.189428038
 N        2.856184568    14.399372583    -6.900424441
 C        2.172950005    15.092788482    -5.848434609
 C        2.359343831    16.485095199    -5.808166797
 C        1.736478888    17.236881316    -4.824371761
 C        0.899666220    16.629254510    -3.876108130
 C        0.735808851    15.242139422    -3.913600672
 C        1.388091109    14.471291309    -4.871768180
 C        3.245788972    13.017302128    -6.569669573
 C        0.269632224    17.477180864    -2.860792177
 C       -0.548460449    17.029901431    -1.899861528
Si       -1.339050934    18.082496195    -0.628440045
 C       -1.044384676    17.335150817     1.023877106
 C        0.129279863    16.610873825     1.259578690
 C        0.366648237    16.038061829     2.508306517
 C       -0.559554909    16.178179963     3.546030668
 C       -1.730968649    16.909051862     3.308121536
 C       -1.970049943    17.485434338     2.063267325
 C       -0.352566058    15.596216579     4.867578896
 C        0.723996393    14.875559811     5.224581819
 C        0.932418430    14.292884793     6.545905259
 C        0.010125464    14.433976245     7.585911234
 C        0.249889349    13.859841910     8.834211566
 C        1.421248427    13.133230094     9.070030205
 C        2.346903111    12.988761159     8.027653060
 C        2.102700454    13.558878892     6.781479710
Si        1.750995102    12.369933711    10.712598750
 C        0.630181867    13.067546990    12.030306010
 C        1.470992698    10.490661075    10.597513221
 C        3.573141238    12.681914382    11.166734687
 C       -0.584542373    19.830486599    -0.630104788
 C       -3.193734549    18.256411118    -1.008829734
 C       -5.572976761    12.634213567    -0.384021954
 C       -2.900142788    13.466163946     0.951930798
 C       -0.632296616    -0.904305257    -1.550434891
 C       -0.652338313    -0.917498543     1.535055582
 H        1.109317986     2.611704114    -0.923381194
 H        0.231914382     4.874000935    -0.919983348
 H       -3.421741086     3.501297626     0.893455155
 H       -2.583877197     1.218216845     0.908525143
 H       -3.219112242     5.785408576     0.426952146
 H       -0.570317027     6.715902194    -0.877335359
 H       -4.017223725     7.659609435     0.465864622
 H       -4.867039978     9.935131303     0.461275009
 H       -1.170987873    11.271209123    -1.412096869
 H       -0.349413963     8.980215971    -1.356916876
 H       -2.967899305    14.471172609    -1.929772154
 H       -3.061857908    11.688586262    -3.345273744
 H       -2.486135426    11.616813289    -5.576210100
 H       -1.774932252    12.671384962    -7.668403304
 H       -1.553262643    16.485722218    -5.637856585
 H       -2.426887583    15.450484961    -3.615477971
 H       -0.304177468    16.978661550    -8.922141724
 H        0.213637903    16.739451708    -7.224094885
 H       -1.451610539    17.291098539    -7.608611170
 H        3.925760921    12.649719550    -7.357566537
 H        2.409623910    12.308175725    -6.475047356
 H        3.811195958    13.020641284    -5.621062805
 H        3.008209791    16.957432453    -6.543500324
 H        1.899685629    18.313705582    -4.791919743
 H        0.099169328    14.742965135    -3.178951308
 H        1.253364397    13.392610907    -4.872204786
 H        0.535963041    18.537364540    -2.967794242
 H       -0.802293104    15.959237041    -1.815668807
 H        0.887847319    16.465121458     0.482862833
 H        1.286661324    15.478692640     2.669442654
 H       -2.463749876    17.030011582     4.103406756
 H       -2.899903514    18.046208009     1.935948354
 H       -1.156996075    15.787744218     5.583474235
 H        1.528408861    14.683509932     4.508060613
 H       -0.908423168    14.996509445     7.429198886
 H       -0.508094990    14.004869812     9.608908696
 H        3.278929605    12.430412929     8.153484164
 H        2.831990997    13.432865624     5.983306753
 H       -1.042859930    13.647258217    -9.369295885
 H        0.010621211    15.010997305    -9.785530893
 H        0.559099688    13.309372265    -7.268483081
 H        1.055677312    12.731217438    -8.852490169
 H        2.848331756    14.208951610    -8.988052268
 H        1.904687099    15.579858997    -8.362807619
 H        2.264187496    -1.027913600     0.067794421
 H        2.258764617     0.566937938     0.863660523
 H        2.277024642     0.456263200    -0.917002831
 H        0.864394516    12.637272290    13.020444583
 H       -0.432515214    12.855751594    11.819057680
 H        0.746657400    14.163782443    12.109045345
 H        1.640324287    10.092281656    11.639409398
 C        0.033587754    10.133402856    10.177005066
 C        2.452712392     9.779493347     9.649211084
 H        4.183119906    12.186277352    10.356345884
 C        3.930373506    14.179282289    11.175546627
 C        3.985341833    12.059848427    12.512759214
 H       -0.691193275    20.217123217    -1.684392417
 C       -1.314298963    20.806156512     0.310123047
 C        0.911942130    19.826005321    -0.268577204
 H       -3.586018981    19.006326277    -0.261852273
 C       -3.459343736    18.807413338    -2.421952729
 C       -3.989317571    16.953444348    -0.831255447
 H       -5.844453323    12.106997591     0.576113787
 C       -6.108267831    14.075158737    -0.298595878
 C       -6.277839390    11.909581673    -1.544913564
 H       -3.214741006    14.545356599     0.844774538
 C       -3.379829605    12.965849289     2.324187326
 C       -1.363103233    13.414123089     0.911102240
 H       -0.167426134    -1.931691516    -1.519395476
 C       -2.162294666    -1.072147393    -1.573485657
 C       -0.190534111    -0.219877014    -2.856964306
 H       -1.777579165    -0.913408361     1.444251523
 C       -0.193669801    -2.384759164     1.613521285
 C       -0.282386656    -0.206559707     2.849499838
 H       -0.732404482    10.538507484    10.850497674
 H       -0.099829894     9.041960575    10.181812170
 H       -0.208540667    10.467634128     9.157714349
 H        3.505053950     9.913803196     9.929415964
 H        2.338780089    10.094865609     8.602262040
 H        2.268472017     8.695192694     9.662840520
 H        3.715309129    14.682137876    10.221766346
 H        5.007179540    14.309148962    11.354965037
 H        3.415503840    14.738971667    11.967632048
 H        3.824597590    10.974932620    12.557934435
 H        3.467316256    12.510834843    13.369501412
 H        5.059818681    12.218339902    12.685792833
 H       -2.368004233    20.961138610     0.046124819
 H       -0.839819108    21.797504732     0.264729645
 H       -1.273388594    20.497599697     1.364449053
 H        1.520284921    19.179398646    -0.915423785
 H        1.097011093    19.517891876     0.770892633
 H        1.327218117    20.838927896    -0.366718615
 H       -3.004153517    19.789299289    -2.601735570
 H       -4.539779887    18.939938257    -2.576896562
 H       -3.115781128    18.130580704    -3.218046742
 H       -3.843925690    16.479655187     0.149494367
 H       -3.755245202    16.207472375    -1.604719883
 H       -5.066974724    17.153840548    -0.917449036
 H       -5.707004979    14.638097102     0.554323022
 H       -7.200090040    14.063060976    -0.171630787
 H       -5.911739670    14.657244361    -1.209935485
 H       -5.993963425    10.852358005    -1.638054645
 H       -6.094574539    12.386143618    -2.519070709
 H       -7.366283170    11.923500991    -1.394826957
 H       -4.462970127    13.058257989     2.468798055
 H       -2.909879731    13.560500226     3.122655917
 H       -3.101591467    11.921101303     2.521287886
 H       -0.935938536    13.827220490    -0.012664756
 H       -0.962701015    12.400509119     1.047536518
 H       -0.949924912    14.019253354     1.734119728
 H       -2.549978174    -1.647199090    -0.723041658
 H       -2.466845045    -1.619435479    -2.477395512
 H       -2.697275238    -0.112142221    -1.602544033
 H        0.898938996    -0.134707163    -2.958063056
 H       -0.616864953     0.786611384    -2.976706725
 H       -0.534272319    -0.803818052    -3.722795512
 H       -0.485282244    -2.978979433     0.737930846
 H       -0.653220147    -2.875282580     2.483959779
 H        0.891980616    -2.488081468     1.741480888
 H       -0.623624107     0.837805739     2.889863972
 H        0.797558207    -0.208419193     3.048699684
 H       -0.754616091    -0.717428547     3.700617809

