187   

Si        0.000000000     0.000000000     0.000000000
 C        1.865124868     0.000000000     0.000000000
 C       -0.671961441     1.714231546     0.000000000
 C        0.084663011     2.775148408     0.509092735
 C       -0.424026433     4.073553265     0.509210896
 C       -1.700838439     4.340719344     0.008132826
 C       -2.460134080     3.276148920    -0.495121945
 C       -1.955009465     1.978714783    -0.496841431
 C       -2.273580263     5.682180831    -0.011916578
 C       -1.653645209     6.786344067     0.438148753
 C       -2.231704628     8.125601628     0.415456688
 C       -3.509977715     8.381241806    -0.088177532
 C       -4.026733506     9.675854548    -0.092143302
 C       -3.272447744    10.742750773     0.406647768
 C       -1.991535166    10.490510814     0.914202420
 C       -1.480225181     9.195193282     0.920318291
Si       -3.939105759    12.455281968     0.408597160
 C       -2.604620480    13.597181385    -0.104267665
 C       -2.239690407    14.714982156     0.535926728
 C       -1.162349337    15.603168692     0.089257403
 C       -0.874691265    16.747275980     0.848696640
 C        0.134788009    17.618038050     0.467485548
 C        0.906673175    17.339579143    -0.672859925
 C        0.660437023    16.175799308    -1.407301265
 C       -0.345721153    15.302722924    -1.004551774
 N        1.928162658    18.294361414    -0.992389408
 C        1.374752317    19.462324447    -1.719004055
 C        3.114765709    17.717921387    -1.649359442
 C        0.967691246    19.190205844    -3.180994563
 C       -0.359028137    19.861092456    -3.587453943
 N       -1.584193530    19.082349378    -3.299817863
 C       -1.564640304    17.735654250    -3.726431330
 C       -0.990544325    17.410508250    -4.973828504
 C       -0.960206121    16.095919100    -5.412885101
 C       -1.495296171    15.059578265    -4.636105440
 C       -2.103697264    15.392360037    -3.422767167
 C       -2.181154858    16.709194979    -2.989857944
 C       -2.110427772    19.323501282    -1.944351449
 C       -1.443858798    13.683704696    -5.135172196
 C       -1.930452908    12.635456266    -4.459233715
Si       -1.924374122    10.883629156    -4.975321789
 C       -3.630728215    10.226378189    -4.770354776
 C       -4.718536085    10.977885185    -5.229742264
 C       -6.019675581    10.499135949    -5.084752425
 C       -6.262373744     9.266862516    -4.470609256
 C       -5.172115172     8.516931036    -4.011488263
 C       -3.870429529     8.988343572    -4.163071399
 C       -7.606394988     8.726731916    -4.297416489
 C       -8.734484069     9.341614347    -4.691177477
 C      -10.078670767     8.801532986    -4.518021798
 C      -10.322492215     7.566125202    -3.912556291
 C      -11.624510885     7.087450771    -3.767273304
 C      -12.712571521     7.833075007    -4.231616028
 C      -12.470614095     9.072328080    -4.839988992
 C      -11.170445553     9.550007025    -4.978319514
Si      -14.436899658     7.215337822    -4.047490946
 C      -14.473166793     5.407858922    -3.587880234
 C      -15.324715488     8.211182863    -2.689813268
 C      -15.349566403     7.492646676    -5.694914630
 C       -1.377567299    10.670038167    -6.781773036
 C       -0.701439099     9.951314938    -3.854963828
 C       -5.410526813    12.641488606    -0.780126179
 C       -4.557924278    12.860376694     2.161857605
 C       -0.647828162    -0.919229281    -1.536434558
 C       -0.629705256    -0.908381970     1.549255798
 H        1.089970030     2.628492803     0.913961656
 H        0.186729707     4.882131332     0.906937534
 H       -3.457439763     3.462084898    -0.889211015
 H       -2.594576350     1.188900755    -0.900415884
 H       -3.281614100     5.742381061    -0.433341196
 H       -0.646598936     6.727793412     0.860309412
 H       -4.115158444     7.567892576    -0.483925216
 H       -5.032174000     9.813729587    -0.502373315
 H       -1.358307807    11.289534570     1.313408632
 H       -0.484929084     9.014797960     1.321194693
 H       -2.090731034    13.275971742    -1.027481847
 H       -2.730496511    15.062031678     1.453848130
 H       -1.459472827    16.965593733     1.741561187
 H        0.355438388    18.506879029     1.055934093
 H        1.253022760    15.939482597    -2.287481183
 H       -0.499926337    14.381308038    -1.570565540
 H        3.910997550    18.482313100    -1.659258400
 H        2.953165056    17.372254254    -2.681380385
 H        3.481405120    16.866975198    -1.048671443
 H       -2.083787663    20.401472163    -1.718231888
 H       -1.560434086    18.784068977    -1.152857990
 H       -3.171620233    19.016042281    -1.911160395
 H       -0.573495871    18.193642584    -5.600035599
 H       -0.510459362    15.869531821    -6.379376824
 H       -2.566432454    14.614158770    -2.809947784
 H       -2.684040288    16.919595804    -2.049435186
 H       -0.971115955    13.592681720    -6.119735285
 H       -2.390945127    12.771073515    -3.463143201
 H       -4.588214459    11.953980102    -5.708914320
 H       -6.849700641    11.097293742    -5.455180610
 H       -5.339920895     7.554075173    -3.533232628
 H       -3.058823093     8.357927545    -3.786733633
 H       -7.647565996     7.749459485    -3.807731997
 H       -8.694021793    10.318553885    -5.182036001
 H       -9.492951850     6.964072981    -3.546624096
 H      -11.752061107     6.114359007    -3.284995298
 H      -13.281762988     9.698342996    -5.222601268
 H      -11.002609391    10.515351388    -5.452275669
 H        0.506537168    19.840729333    -1.135249884
 H        2.145953933    20.263409226    -1.678765386
 H        1.770704529    19.530278494    -3.859798798
 H        0.892103465    18.095963186    -3.352659649
 H       -0.450644257    20.860799416    -3.110437280
 H       -0.353522822    20.055945632    -4.686821305
 H        2.263194373    -1.029023927    -0.054299526
 H        2.277145460     0.468146185     0.910884162
 H        2.258837729     0.555265521    -0.870971829
 H      -15.510890175     5.035021021    -3.521099105
 H      -13.990342940     5.223330953    -2.612310403
 H      -13.949324359     4.796395391    -4.344959513
 H      -16.348679489     7.747293494    -2.592163420
 C      -14.620464911     8.105418195    -1.324628076
 C      -15.507460678     9.699707684    -3.035993321
 H      -15.328757555     8.606714226    -5.876218529
 C      -14.644833006     6.809767135    -6.880967235
 C      -16.822687596     7.048311500    -5.663268514
 H       -0.367409469    11.167097946    -6.860360278
 C       -1.216549429     9.194901212    -7.191130232
 C       -2.326876699    11.358565722    -7.779377417
 H       -0.793979370     8.861268235    -4.131414732
 C        0.762218955    10.374859725    -4.076630498
 C       -1.034861347    10.098329409    -2.361929446
 H       -6.192009699    11.913241650    -0.413870989
 C       -6.026634415    14.052591121    -0.754085052
 C       -5.071002893    12.281529222    -2.233589725
 H       -4.865639242    13.945593967     2.140582977
 C       -5.783423146    12.026076307     2.575149018
 C       -3.464802288    12.693979574     3.233089009
 H       -1.772851255    -0.924591695    -1.443779095
 C       -0.285820747    -0.202036311    -2.849630099
 C       -0.177561019    -2.382497083    -1.619375550
 H       -0.161174772    -1.934119201     1.516646217
 C       -0.190118334    -0.223945031     2.856433643
 C       -2.159045924    -1.081714538     1.572332499
 H      -14.521751404     7.073828140    -0.962991995
 H      -15.198066669     8.644673993    -0.560118403
 H      -13.617075735     8.555090001    -1.325845109
 H      -16.074907642     9.866230769    -3.960310619
 H      -14.552849869    10.237459331    -3.123864339
 H      -16.069810323    10.204347410    -2.236749398
 H      -13.597402074     7.121752545    -7.001401155
 H      -15.152039384     7.069060799    -7.821210190
 H      -14.657682627     5.713777502    -6.815067406
 H      -17.411496586     7.548796615    -4.883738623
 H      -16.940530934     5.965016516    -5.527900423
 H      -17.308570222     7.292521101    -6.619226615
 H       -0.481027623     8.651210994    -6.584078967
 H       -0.864697233     9.128846913    -8.230695058
 H       -2.161209862     8.634178033    -7.152277951
 H       -2.470290710    12.429457584    -7.581723533
 H       -3.321537729    10.891117667    -7.811197564
 H       -1.921098690    11.284499231    -8.798116738
 H        1.112464610    10.215063473    -5.103760866
 H        1.425004546     9.780258396    -3.431384150
 H        0.946329353    11.427787994    -3.819725723
 H       -2.066328273     9.813678750    -2.103942311
 H       -0.871232495    11.116674228    -1.982995790
 H       -0.389113610     9.440038026    -1.762239364
 H       -6.394177569    14.351868623     0.234928520
 H       -6.895274400    14.092999844    -1.427509569
 H       -5.332139374    14.830136343    -1.103170221
 H       -4.608897575    11.289997622    -2.350279254
 H       -4.412823445    13.017899989    -2.714579250
 H       -5.988110455    12.249981399    -2.841250383
 H       -6.651724323    12.171838768     1.919507469
 H       -6.111437435    12.313235743     3.584631346
 H       -5.573813913    10.947787120     2.617977826
 H       -2.561579067    13.287040763     3.036596705
 H       -3.151961724    11.647562925     3.361384447
 H       -3.842696371    13.022530369     4.211511864
 H       -0.636329556     0.839246799    -2.887383504
 H       -0.754487650    -0.715098839    -3.701450461
 H        0.793843342    -0.194000802    -3.050289733
 H       -0.464112124    -2.981726072    -0.745501086
 H        0.908803716    -2.476933329    -1.748253470
 H       -0.633566024    -2.873979996    -2.491162015
 H        0.899026206    -0.133406829     2.956868118
 H       -0.530160010    -0.811309062     3.721519784
 H       -0.621444145     0.780111318     2.978545819
 H       -2.545730847    -1.652075057     0.718318272
 H       -2.697219365    -0.123781720     1.608721382
 H       -2.460829543    -1.636532101     2.472652956

