187   

Si        0.000000000     0.000000000     0.000000000
 C        1.865382653     0.000000000     0.000000000
 C       -0.683265859     1.709195437     0.000000000
 C        0.140406672     2.821004946    -0.201366125
 C       -0.393699382     4.109626955    -0.198354178
 C       -1.761525872     4.315573195    -0.001725878
 C       -2.586134046     3.200067952     0.197719629
 C       -2.055549834     1.913304526     0.200213263
 C       -2.365356722     5.643692582     0.009538618
 C       -1.692252497     6.793886010    -0.163634569
 C       -2.301057479     8.120052806    -0.151490087
 C       -1.482480368     9.240371586    -0.345088641
 C       -2.019869218    10.525292254    -0.341348620
 C       -3.390366405    10.720720756    -0.132608545
 C       -4.210070426     9.602842874     0.060569887
 C       -3.670769399     8.317638555     0.045294178
Si       -4.125272893    12.407003497    -0.122909834
 C       -5.578271666    12.516916029     0.981736360
 C       -5.741382353    11.778021856     2.087622605
 C       -6.903975442    11.865577785     2.971995246
 C       -6.959245559    11.037068753     4.102362143
 C       -8.036425933    11.079909157     4.971799116
 C       -9.087407142    12.000505473     4.764275613
 C       -9.032068509    12.832973031     3.629643839
 C       -7.966460337    12.743260154     2.742929575
 N      -10.173924095    12.034967641     5.651760509
 C       -9.927390565    11.665930079     7.056228173
 C      -11.155382514    13.114745698     5.474848004
 C       -8.848909740    12.495260673     7.773543178
 C       -9.342122398    13.857127567     8.291331368
 N      -10.173506019    13.810970682     9.508453224
 C       -9.666131506    13.094281102    10.606201082
 C       -8.285248586    13.161187982    10.894541442
 C       -7.760022642    12.464789608    11.970025008
 C       -8.584542211    11.717431240    12.823948723
 C       -9.954498130    11.677123242    12.553668088
 C      -10.496561029    12.356337604    11.469403093
 C      -11.617282560    13.713426427     9.251335768
 C       -7.976650279    11.000084207    13.946247424
 C       -8.665078868    10.257574481    14.822910260
Si       -7.961180518     9.342168750    16.239537295
 C       -8.572983440     7.607583430    16.222916176
 C       -9.084249078     7.049877894    15.044732908
 C       -9.547904167     5.736783907    15.030227694
 C       -9.502482522     4.947085555    16.186411041
 C       -8.985235795     5.505210230    17.359195276
 C       -8.523867161     6.820609196    17.378635408
 C      -10.000383968     3.577140462    16.120365002
 C      -10.018015389     2.717603983    17.153241691
 C      -10.516352366     1.347834417    17.085384239
 C      -11.033100739     0.790960353    15.912820021
 C      -11.499081747    -0.523618012    15.892441569
 C      -11.462460975    -1.309439099    17.048453330
 C      -10.944639797    -0.753109741    18.226124885
 C      -10.476129666     0.557538476    18.242152349
Si      -12.073112845    -3.045913279    17.039620024
 C      -13.010091513    -3.437305228    15.474816517
 C      -10.598112999    -4.241112318    17.179582885
 C      -13.196162655    -3.287022274    18.557547472
 C       -6.060632674     9.334091774    16.180548944
 C       -8.519148450    10.195017531    17.846663750
 C       -2.830131382    13.683416484     0.437213256
 C       -4.683016092    12.837794378    -1.889991110
 C       -0.602026711    -0.929147424    -1.548897866
 C       -0.660831849    -0.898469388     1.542440277
 H        1.217508575     2.722564859    -0.362110334
 H        0.269501592     4.958556049    -0.353925539
 H       -3.654416506     3.338523795     0.353729204
 H       -2.747538611     1.082390965     0.364755235
 H       -3.447133295     5.652165170     0.174079092
 H       -0.611049687     6.787500872    -0.328446523
 H       -0.413805168     9.108510911    -0.502155297
 H       -1.332780689    11.360198921    -0.502966030
 H       -5.289474268     9.695693461     0.223924338
 H       -4.330202149     7.464237320     0.192954150
 H       -6.327225842    13.263853916     0.678749793
 H       -5.003411530    11.032475623     2.417590767
 H       -6.145951693    10.335705125     4.296526433
 H       -8.064268312    10.397626659     5.816751665
 H       -9.821341476    13.548172167     3.425404223
 H       -7.958348638    13.386773298     1.861888384
 H      -11.950190179    13.034785925     6.234730756
 H      -11.644941521    12.997487846     4.489310602
 H      -10.716021575    14.124288016     5.531341038
 H      -11.892888047    14.369286413     8.408637794
 H      -12.165943433    14.088040495    10.136458549
 H      -11.964585786    12.691031880     9.030339651
 H       -7.627387913    13.760715670    10.271267687
 H       -6.687589701    12.513270227    12.162619567
 H      -10.619423094    11.103518343    13.201820538
 H      -11.565361825    12.293136511    11.294964636
 H       -6.887578670    11.127644947    14.000857493
 H       -9.760910999    10.158458983    14.745043134
 H       -9.138937406     7.618094164    14.110370286
 H       -9.946674561     5.321152322    14.106791195
 H       -8.938480253     4.912834475    18.270993254
 H       -8.131813357     7.203025268    18.325092562
 H      -10.375668319     3.274295826    15.138271843
 H       -9.642566270     3.019807861    18.135214852
 H      -11.075714693     1.382162884    14.999833249
 H      -11.891569885    -0.903716726    14.945249986
 H      -10.891691731    -1.319661721    19.160181993
 H      -10.076315223     0.971531111    19.165880148
 H      -10.889327760    11.715381489     7.612090574
 H       -9.639309849    10.586518258     7.071792257
 H       -8.438341038    11.901951925     8.616726908
 H       -7.988692594    12.658984869     7.091669794
 H       -8.461152706    14.505264276     8.520528284
 H       -9.901898119    14.392659790     7.494036303
 H        2.262947358    -1.029962019     0.038105501
 H        2.262560817     0.541116439     0.877944641
 H        2.273686733     0.480912669    -0.906193952
 H      -13.405860734    -4.468453873    15.495606359
 H      -12.369447612    -3.345219178    14.580288694
 H      -13.869908178    -2.754995193    15.346237816
 H      -11.037899380    -5.277041290    17.098025133
 C       -9.584617430    -4.061335756    16.034332660
 C       -9.847929106    -4.146376776    18.520123336
 H      -12.550317227    -3.068890296    19.457424514
 C      -14.378436927    -2.301169295    18.577695607
 C      -13.736167851    -4.720954182    18.700844058
 H       -5.748788748    10.415264156    16.093900885
 C       -5.411992027     8.753423605    17.449979276
 C       -5.514821017     8.575559231    14.956913820
 H       -8.040766811     9.615950339    18.688715785
 C       -8.049188674    11.656794552    17.945892219
 C      -10.044922719    10.142810488    18.041990393
 H       -1.988388460    13.625713971    -0.311718739
 C       -3.364303030    15.126944352     0.439676590
 C       -2.256736729    13.360700892     1.828717103
 H       -5.111364622    13.879977302    -1.837195543
 C       -3.526110123    12.846538677    -2.904215640
 C       -5.786452800    11.892470256    -2.398085398
 H       -0.086498767    -1.932519914    -1.519538972
 C       -2.120923564    -1.176073365    -1.575709233
 C       -0.195536861    -0.221206101    -2.854519857
 H       -1.785541918    -0.892541719     1.444556535
 C       -0.204145189    -2.364799759     1.642292956
 C       -0.298915461    -0.169852364     2.849358353
 H      -10.023602022    -4.196160180    15.037447936
 H       -8.782849272    -4.808761992    16.120280453
 H       -9.091794812    -3.078484577    16.050429711
 H      -10.488446736    -4.324832406    19.392993215
 H       -9.347337445    -3.177948613    18.660240663
 H       -9.055941079    -4.908458106    18.560951966
 H      -14.065381292    -1.247982117    18.536314419
 H      -14.948764484    -2.415146969    19.510558649
 H      -15.090169351    -2.467154092    17.758267635
 H      -12.945021788    -5.478895323    18.768134573
 H      -14.407281884    -5.009799227    17.881172923
 H      -14.325484470    -4.809286158    19.625191115
 H       -5.674374388     9.301633645    18.363677155
 H       -4.316382260     8.803102629    17.367620955
 H       -5.657307018     7.694029593    17.609980923
 H       -5.899749322     8.950051866    13.998633385
 H       -5.727190929     7.497241770    14.995850900
 H       -4.421060525     8.672127762    14.909679263
 H       -6.957990980    11.767269191    17.903312316
 H       -8.364835695    12.089709611    18.905851689
 H       -8.479211190    12.298499594    17.163345035
 H      -10.450932102     9.121485491    18.027886552
 H      -10.593109785    10.728822466    17.291650972
 H      -10.314107096    10.566065027    19.020196545
 H       -3.719553655    15.461776495    -0.543143660
 H       -2.563891971    15.822955859     0.729527690
 H       -4.179074060    15.279535912     1.161309288
 H       -1.801239791    12.362635155     1.892670456
 H       -3.009722314    13.430873670     2.627122003
 H       -1.465134802    14.077894419     2.087119854
 H       -2.738176809    13.570485501    -2.660531261
 H       -3.900730092    13.124697941    -3.899975012
 H       -3.051722735    11.861453799    -3.020846379
 H       -6.676411015    11.874264086    -1.754189864
 H       -5.440006760    10.855271868    -2.514247170
 H       -6.130726840    12.213648932    -3.391272926
 H       -2.488677442    -1.733487185    -0.705065792
 H       -2.387279288    -1.776362740    -2.457952567
 H       -2.702153043    -0.246499843    -1.652743111
 H        0.888178649    -0.079483309    -2.955503668
 H       -0.671845741     0.762809479    -2.972718668
 H       -0.508848007    -0.820509011    -3.721339906
 H       -0.489490450    -2.969452050     0.771780520
 H       -0.670555950    -2.844273189     2.515289492
 H        0.880464545    -2.467125998     1.779625977
 H       -0.646517037     0.872921095     2.874949265
 H        0.779921529    -0.164114907     3.053534393
 H       -0.773087447    -0.672064806     3.704648324

