187   

Si        0.000000000     0.000000000     0.000000000
 C        1.864341331     0.000000000     0.000000000
 C       -0.683160672     1.707390486     0.000000000
 C        0.124157162     2.811758588    -0.290189775
 C       -0.409672744     4.099971018    -0.285917608
 C       -1.763104672     4.309282575    -0.009271769
 C       -2.570457754     3.201413525     0.280609280
 C       -2.037087453     1.916002005     0.293423526
 C       -2.370592148     5.633589756     0.007908019
 C       -1.722696935     6.785961494    -0.233448069
 C       -2.364758862     8.095644579    -0.207464452
 C       -3.724887137     8.240700425     0.076227912
 C       -4.315618988     9.500818782     0.095339352
 C       -3.549412499    10.650602929    -0.125585801
 C       -2.183585983    10.510657793    -0.398383088
 C       -1.601424421     9.245123235    -0.448006656
Si       -4.365996665    12.290696590    -0.091996082
 C       -3.575016389    13.573858925     0.929702757
 C       -3.279645769    14.817631638     0.533169762
 C       -2.641971948    15.804250832     1.405529023
 C       -2.371434994    17.084115605     0.899196897
 C       -1.769351585    18.048025622     1.689941233
 C       -1.495562253    17.777390469     3.046674471
 C       -1.770223942    16.501159242     3.558424982
 C       -2.306063367    15.520773852     2.730347148
 N       -0.877953584    18.798284282     3.812620091
 C       -1.606328704    20.093511442     3.804708439
 C       -0.438992035    18.412085295     5.165771204
 C       -3.129364538    20.047083804     3.583660809
 C       -3.896636105    19.216843907     4.631748782
 N       -5.318463049    19.185371066     4.236200923
 C       -6.020860279    17.974716057     4.207108727
 C       -5.357999961    16.745969880     4.000256802
 C       -6.065949573    15.554922242     3.973817697
 C       -7.466061444    15.535042268     4.060572887
 C       -8.126537368    16.756491147     4.221187248
 C       -7.429679682    17.955200335     4.293611693
 C       -6.053993351    20.381946056     4.674995025
 C       -8.174477693    14.252855181     4.028737471
 C       -9.507258521    14.130405843     4.105157658
Si      -10.454116761    12.564288329     4.071395726
 C       -9.636941332    11.234383362     3.092640345
 C       -9.451895603    11.381146224     1.712923231
 C       -8.833958256    10.378370431     0.965352650
 C       -8.379717700     9.206340590     1.577087683
 C       -8.577041691     9.054562594     2.955375834
 C       -9.210286686    10.046423290     3.699643763
 C       -7.727486764     8.126784241     0.844449816
 C       -7.473282488     8.133666910    -0.475030886
 C       -6.819528796     7.046812838    -1.197828673
 C       -6.388171157     5.873813885    -0.572527763
 C       -5.767631016     4.861183593    -1.304559048
 C       -5.525003220     5.017385412    -2.672873910
 C       -5.937624199     6.202847889    -3.297195593
 C       -6.575545977     7.202932257    -2.568891505
Si       -4.707451640     3.696499146    -3.663257078
 C       -4.275396334     2.205405880    -2.630001439
 C       -5.857856254     3.107265348    -5.061764794
 C       -3.128744679     4.429973744    -4.432646679
 C      -10.687067974    12.000834615     5.879752966
 C      -12.178261005    12.925350054     3.347847334
 C       -4.646464903    12.847882434    -1.886487886
 C       -6.064435939    12.155463000     0.770995286
 C       -0.622949137    -0.875186247    -1.573993764
 C       -0.665398634    -0.925849538     1.522477726
 H        1.187736338     2.707128861    -0.520734566
 H        0.239968242     4.945339437    -0.504518146
 H       -3.624794963     3.346878964     0.510608186
 H       -2.712003916     1.091205835     0.538796770
 H       -3.445145607     5.637188604     0.225643993
 H       -0.654522913     6.796331887    -0.461458685
 H       -4.346120891     7.364367042     0.263619675
 H       -5.392217844     9.538743192     0.299605483
 H       -1.538837615    11.375788689    -0.575630035
 H       -0.540698148     9.152639188    -0.670308690
 H       -3.352466238    13.234746649     1.956493270
 H       -3.487679568    15.192830622    -0.475568320
 H       -2.621227238    17.319630288    -0.135384714
 H       -1.509184559    19.016912909     1.271139119
 H       -1.560113506    16.255549951     4.594660707
 H       -2.483990396    14.524694921     3.139375325
 H        0.175722041    19.226509083     5.586941578
 H        0.218110521    17.526371332     5.097209288
 H       -1.260718443    18.194654387     5.864991657
 H       -5.388367358    21.260365951     4.691685900
 H       -6.500503095    20.268367814     5.677046809
 H       -6.856624813    20.604249020     3.947503800
 H       -4.279023483    16.724218694     3.856692123
 H       -5.520395246    14.617410658     3.847472804
 H       -9.214878224    16.778503811     4.292337313
 H       -7.990844746    18.873792533     4.421872793
 H       -7.504501490    13.388902941     3.916351773
 H      -10.148021282    15.019664783     4.219298599
 H       -9.777285546    12.279629891     1.178036080
 H       -8.716660451    10.514303686    -0.108842468
 H       -8.238981745     8.147930492     3.453595609
 H       -9.349484980     9.855998080     4.767708155
 H       -7.442997918     7.267364292     1.459318062
 H       -7.757222803     8.990264829    -1.093445486
 H       -6.552291597     5.731365446     0.493863473
 H       -5.474430387     3.955592937    -0.766736819
 H       -5.763480870     6.387061742    -4.361387030
 H       -6.884754622     8.116703121    -3.072872215
 H       -1.385633361    20.646299527     4.742869701
 H       -1.147863920    20.691812206     2.979111866
 H       -3.515599506    21.084083112     3.566889943
 H       -3.368289617    19.643519419     2.576177163
 H       -3.475222167    18.187835683     4.679954601
 H       -3.770373229    19.650242653     5.646921885
 H        2.262571873    -1.029611140     0.040921184
 H        2.260304434     0.543562443     0.877195826
 H        2.274269275     0.479053668    -0.906394189
 H       -3.898378680     1.381844027    -3.262340113
 H       -5.145367444     1.825482401    -2.068769764
 H       -3.475245871     2.448218041    -1.903733468
 H       -5.327790347     2.228087221    -5.531337703
 C       -7.216751281     2.614537136    -4.529491375
 C       -6.111545377     4.146617703    -6.167595339
 H       -3.476970677     5.185431789    -5.195020213
 C       -2.253493458     5.167605325    -3.406007491
 C       -2.267082531     3.379765196    -5.157221974
 H      -11.107726275    10.955732377     5.828103493
 C       -9.357169154    11.952772099     6.654815073
 C      -11.681025333    12.869682419     6.671731926
 H      -12.660208766    13.649099753     4.068217399
 C      -12.140513097    13.599306297     1.964847736
 C      -13.064393018    11.669998403     3.266784125
 H       -5.151759503    13.854992708    -1.828212773
 C       -3.331763699    13.016563550    -2.668943056
 C       -5.571421246    11.894287085    -2.665828095
 H       -6.655446663    11.388206519     0.195651087
 C       -5.931418355    11.674714115     2.227525413
 C       -6.842762192    13.481742552     0.749075907
 H       -0.115228649    -1.881880656    -1.586806979
 C       -2.144714499    -1.106495520    -1.590330888
 C       -0.229773392    -0.122159996    -2.858912063
 H       -1.789660578    -0.925258103     1.420317205
 C       -0.201311225    -2.391350818     1.599000053
 C       -0.313283511    -0.217699283     2.843288597
 H       -7.128968773     1.802390572    -3.796165357
 H       -7.824546557     2.218625287    -5.355346433
 H       -7.810442595     3.416006097    -4.067355373
 H       -5.191821792     4.528957139    -6.628077041
 H       -6.698180592     5.006632827    -5.817255650
 H       -6.694417237     3.691904477    -6.981802483
 H       -2.785686089     5.968320185    -2.870691360
 H       -1.403415060     5.648877001    -3.908560557
 H       -1.825626713     4.498573973    -2.644558185
 H       -2.804598450     2.844351094    -5.949488467
 H       -1.844492862     2.631585086    -4.471990094
 H       -1.410077814     3.869380630    -5.641982608
 H       -8.584696013    11.335903158     6.177023609
 H       -9.518132922    11.525805488     7.654359843
 H       -8.923737860    12.952269843     6.810929282
 H      -12.694471475    12.864855022     6.250821717
 H      -11.358310358    13.915817585     6.762792669
 H      -11.776506948    12.488288225     7.698780310
 H      -11.494128160    14.486741836     1.925490453
 H      -13.148220723    13.940131476     1.687100301
 H      -11.821087156    12.915218981     1.166914017
 H      -13.220963731    11.182486448     4.237777535
 H      -12.669858778    10.911124091     2.575872465
 H      -14.062926506    11.936501515     2.891890960
 H       -2.626854999    13.714202457    -2.196996532
 H       -3.537436948    13.417300658    -3.671268545
 H       -2.803836965    12.064186130    -2.822293916
 H       -6.574285808    11.809598513    -2.227540605
 H       -5.158096850    10.879379013    -2.759412692
 H       -5.713513120    12.262567102    -3.691410378
 H       -5.358255792    10.744363902     2.338116894
 H       -6.930564941    11.457277120     2.639136448
 H       -5.478770926    12.425659547     2.887277800
 H       -7.085899770    13.829020645    -0.261795997
 H       -6.320054734    14.301580801     1.265906755
 H       -7.801429981    13.365427949     1.277072075
 H       -2.505148006    -1.700278236    -0.741154767
 H       -2.429206785    -1.663757423    -2.494709864
 H       -2.718425348    -0.168105627    -1.615211633
 H        0.852922877     0.020721289    -2.967426234
 H       -0.705418655     0.866812096    -2.935649050
 H       -0.554452009    -0.690119792    -3.742330796
 H       -0.477438767    -2.981565281     0.715655541
 H       -0.670966913    -2.889101246     2.459908522
 H        0.882924882    -2.490356865     1.742060353
 H       -0.665723480     0.822918798     2.884756817
 H        0.764664669    -0.210224146     3.052575795
 H       -0.788594343    -0.736682208     3.687819567

