187   

Si        0.000000000     0.000000000     0.000000000
 C        1.865299087     0.000000000     0.000000000
 C       -0.681146556     1.708538647     0.000000000
 C        0.149880684     2.832416747     0.020271964
 C       -0.395453053     4.116828431     0.019744600
 C       -1.779373516     4.300231217     0.031652416
 C       -2.611231428     3.172092493     0.015881197
 C       -2.070863910     1.891269538    -0.011157147
 C       -2.406685425     5.615712624     0.031743418
 C       -1.755734736     6.791374152     0.020708348
 C       -2.428363759     8.086321498     0.021303559
 C       -3.822289092     8.194323714     0.033627856
 C       -4.440681717     9.442529131     0.033926721
 C       -3.675443071    10.613407045     0.023250419
 C       -2.278588402    10.510005056     0.007418811
 C       -1.663927018     9.259628977     0.002418703
Si       -4.499447494    12.256265268     0.023725961
 C       -3.544678945    13.516970147     0.936893853
 C       -2.746068802    13.245810840     1.977515796
 C       -1.982246419    14.259464129     2.706996707
 C       -1.178075215    13.851947414     3.782943018
 C       -0.436167364    14.770138532     4.505355233
 C       -0.480689835    16.140545623     4.171649397
 C       -1.301323784    16.553427755     3.110909735
 C       -2.054748853    15.620290498     2.405865566
 N        0.296634476    17.037223323     4.941857164
 C        1.713925677    16.645359007     5.110974543
 C        0.108745033    18.470516633     4.670270686
 C        2.412644073    16.106610223     3.850307920
 C        2.870126005    17.210840519     2.877578042
 N        2.515026961    16.969364589     1.467530815
 C        2.899138665    15.747530181     0.891920422
 C        4.049797263    15.075970707     1.358268515
 C        4.433521225    13.870415183     0.794267602
 C        3.732766184    13.316720761    -0.286951287
 C        2.609614299    13.995878751    -0.765801380
 C        2.191648071    15.189033761    -0.191177484
 C        1.194822436    17.492832861     1.085466243
 C        4.187381790    12.040343613    -0.838757513
 C        3.610803106    11.403690757    -1.867127007
Si        4.185227785     9.807543000    -2.551632543
 C        2.826301328     8.581606992    -2.723909467
 C        1.486053383     8.901355498    -2.489007236
 C        0.491245258     7.932648809    -2.633990474
 C        0.813512662     6.634892920    -3.037118472
 C        2.157459672     6.318723426    -3.280363267
 C        3.151702326     7.277821934    -3.123681006
 C       -0.176159806     5.578936571    -3.207117927
 C       -1.498618526     5.714385347    -3.015349090
 C       -2.460218378     4.631309665    -3.195986913
 C       -2.072219685     3.347699834    -3.589207331
 C       -3.016284602     2.335431965    -3.752719956
 C       -4.367942903     2.577977514    -3.490664893
 C       -4.759506203     3.861633384    -3.086983336
 C       -3.817198701     4.877349382    -2.949630072
Si       -5.619853134     1.247375565    -3.704050291
 C       -4.804936454    -0.405367604    -4.003303096
 C       -6.664386005     1.177435397    -2.113531047
 C       -6.754442668     1.649351931    -5.176163037
 C        4.895228827    10.116215831    -4.291222367
 C        5.561320804     9.112247167    -1.430403950
 C       -4.648709883    12.830250747    -1.785541082
 C       -6.239920692    12.136565142     0.780562834
 C       -0.679665118    -0.854272567    -1.560867525
 C       -0.595711800    -0.956766338     1.533777078
 H        1.239561171     2.748319153     0.025920111
 H        0.269913762     4.978948877     0.011076236
 H       -3.692626476     3.299387288     0.008326559
 H       -2.768383079     1.049298621    -0.048307068
 H       -3.501889257     5.589260460     0.040621572
 H       -0.663064912     6.830880459     0.007782426
 H       -4.441349177     7.299053098     0.047025169
 H       -5.533735473     9.460487030     0.043786302
 H       -1.632857129    11.394988313    -0.000171927
 H       -0.575849525     9.196889974    -0.009602495
 H       -3.684931176    14.546954147     0.575565600
 H       -2.592455986    12.226987637     2.361020430
 H       -1.130372342    12.795166332     4.051386916
 H        0.172109782    14.438575651     5.343401379
 H       -1.372496410    17.601226237     2.838397299
 H       -2.696928744    15.965646956     1.594680866
 H        0.651841861    19.057247090     5.431338313
 H       -0.962116563    18.722112325     4.781908472
 H        0.445100979    18.792587789     3.672784276
 H        0.998042712    18.447916463     1.597260066
 H        0.369123839    16.795947943     1.316415535
 H        1.190688695    17.707115792     0.000476186
 H        4.639026305    15.495406978     2.167416319
 H        5.308307415    13.354160701     1.190847783
 H        2.041070728    13.583760157    -1.601169833
 H        1.303698602    15.673603555    -0.584612000
 H        5.063571372    11.639657531    -0.309929073
 H        2.737048524    11.830410171    -2.384066678
 H        1.177040520     9.902925204    -2.176007606
 H       -0.546547344     8.199390004    -2.433624042
 H        2.428356438     5.312550787    -3.593945936
 H        4.181228665     6.971986695    -3.331298913
 H        0.240415455     4.613117256    -3.511568669
 H       -1.928592582     6.671904972    -2.705990835
 H       -1.022177845     3.128169353    -3.775973396
 H       -2.653241946     1.355043144    -4.074003450
 H       -5.802080829     4.107522346    -2.869145047
 H       -4.138304031     5.871700516    -2.644053226
 H        2.281186530    17.503475046     5.530604602
 H        1.729760459    15.856669671     5.902598636
 H        3.281413431    15.491682696     4.153989592
 H        1.747021423    15.391385592     3.321749069
 H        2.457776580    18.197981730     3.180520110
 H        3.978310925    17.330115989     2.926041090
 H        2.264758374    -1.029335089    -0.008495848
 H        2.269738291     0.506707630     0.894088905
 H        2.264716021     0.517622815    -0.890632629
 H       -5.556257909    -1.211219154    -4.075554683
 H       -4.117119614    -0.664115434    -3.177219447
 H       -4.222548603    -0.408724478    -4.941167498
 H       -7.100777602     2.210625504    -1.987204304
 C       -7.832408434     0.178433712    -2.187522748
 C       -5.817171636     0.866941113    -0.865744667
 H       -7.442649287     0.761243006    -5.280363921
 C       -7.624555239     2.901717018    -4.967011044
 C       -5.974919784     1.806286561    -6.494849767
 H        5.271933177     9.115001499    -4.650164356
 C        3.826879657    10.604814818    -5.285357585
 C        6.075060317    11.103494190    -4.295090460
 H        6.242311648     9.988121657    -1.217442484
 C        5.003144787     8.598857826    -0.090140596
 C        6.423685012     8.005784097    -2.062214753
 H       -5.170434676    13.829403039    -1.757077358
 C       -3.271094421    13.026615349    -2.444487555
 C       -5.486803877    11.876112099    -2.653718819
 H       -6.808867364    11.398625983     0.144551735
 C       -6.214461181    11.606013302     2.225189041
 C       -7.004973927    13.472092769     0.753276786
 H       -1.804545948    -0.809991946    -1.466829652
 C       -0.288521984    -0.114944372    -2.853409734
 C       -0.271967723    -2.332503685    -1.683904162
 H       -0.041442149    -1.939425431     1.505163020
 C       -0.230702732    -0.241239253     2.847690977
 C       -2.103559252    -1.266079252     1.546088908
 H       -8.525707886     0.379682045    -3.014335247
 H       -8.431113159     0.231029235    -1.266685798
 H       -7.499814108    -0.864034878    -2.277774023
 H       -4.984781647     1.572024758    -0.723592814
 H       -5.397861210    -0.147841853    -0.875533564
 H       -6.438627909     0.936662392     0.038115417
 H       -8.257845321     2.849950738    -4.072600350
 H       -8.307888697     3.029919179    -5.819177057
 H       -7.032123650     3.825840625    -4.909245683
 H       -5.394208207     0.915560378    -6.766981271
 H       -5.284728480     2.662423946    -6.483592471
 H       -6.672094677     1.984294608    -7.326041615
 H        2.969338188     9.922472718    -5.371784747
 H        4.258304156    10.681796808    -6.293583174
 H        3.436659558    11.601768850    -5.039709271
 H        6.915891923    10.780278732    -3.668045127
 H        5.787714078    12.113758401    -3.969697562
 H        6.473416014    11.210065091    -5.314119518
 H        4.431311734     9.355630226     0.465252087
 H        5.825766329     8.287750027     0.568454457
 H        4.352622583     7.720173251    -0.208111935
 H        6.867229177     8.291267715    -3.024453460
 H        5.874817354     7.066217514    -2.209251483
 H        7.265328741     7.763433616    -1.396778099
 H       -2.628500579    13.739384146    -1.909275230
 H       -3.393948308    13.424760873    -3.461524493
 H       -2.710299306    12.085934404    -2.548832431
 H       -6.518365733    11.757179934    -2.298553646
 H       -5.043866809    10.873072148    -2.737915292
 H       -5.558773846    12.265449674    -3.679632564
 H       -5.731547767    10.623683138     2.322215147
 H       -7.239859669    11.483447445     2.601195743
 H       -5.709934850    12.290928192     2.922406624
 H       -7.133700823    13.880440736    -0.257081406
 H       -6.532084466    14.247766714     1.371883641
 H       -8.017744262    13.332496906     1.158345525
 H       -0.601616780     0.940299303    -2.855820886
 H       -0.775877684    -0.585740893    -3.718758964
 H        0.790196689    -0.141735580    -3.053961510
 H       -0.583785892    -2.942942249    -0.826694595
 H        0.809650079    -2.469212608    -1.812915800
 H       -0.745417468    -2.780898544    -2.569244836
 H        0.845527318    -0.057574088     2.961080233
 H       -0.529628796    -0.856415258     3.708143897
 H       -0.745206045     0.723711251     2.964688843
 H       -2.448610694    -1.800299712     0.652073224
 H       -2.720523927    -0.364131797     1.662730050
 H       -2.345254515    -1.912989491     2.401835752

