187   

Si        0.000000000     0.000000000     0.000000000
 C        1.865752967     0.000000000     0.000000000
 C       -0.667570251     1.714891149     0.000000000
 C        0.099964732     2.776564366    -0.490572075
 C       -0.405813963     4.075476733    -0.490513895
 C       -1.692521699     4.342533139    -0.013807451
 C       -2.462792917     3.277044396     0.469263843
 C       -1.958764847     1.978915147     0.475088751
 C       -2.258065162     5.687630788     0.003092546
 C       -1.604908648     6.778159977    -0.431262735
 C       -2.131484749     8.136864783    -0.432203436
 C       -3.409763499     8.453218710     0.033371071
 C       -3.867209702     9.770878687     0.011007420
 C       -3.044756492    10.795455973    -0.464238599
 C       -1.760306576    10.482366484    -0.929188977
 C       -1.312645713     9.165970324    -0.916280063
Si       -3.590027224    12.550846901    -0.518958038
 C       -2.115126285    13.541478020    -0.090406438
 C       -1.635962215    14.592568288    -0.766843983
 C       -0.444388589    15.340306199    -0.361791212
 C       -0.025847562    16.427086115    -1.141304827
 C        1.095915853    17.163638625    -0.796470096
 C        1.908368946    16.762620854     0.285016221
 C        1.506038302    15.652501146     1.049087780
 C        0.334929546    14.973197977     0.738810346
 N        3.045394079    17.529572524     0.616404690
 C        3.860587467    18.030679226    -0.507505711
 C        3.873999442    17.028064905     1.727072681
 C        4.561327076    16.934658052    -1.331702983
 C        3.813022284    16.649290154    -2.648511366
 N        4.262535080    15.431534039    -3.348549647
 C        3.951430103    14.226145240    -2.653608502
 C        2.591569519    13.887804658    -2.521311508
 C        2.224259987    12.728680604    -1.856404480
 C        3.195482816    11.865177388    -1.325435687
 C        4.542705700    12.200215379    -1.474572215
 C        4.925098305    13.363715666    -2.134220204
 C        5.643268951    15.536580991    -3.850769712
 C        2.763502305    10.649971496    -0.629701162
 C        3.607634092     9.761430952    -0.087781533
Si        3.105682918     8.236366804     0.786504502
 C        1.477820130     8.419046814     1.618570555
 C        1.046433779     9.679934763     2.045919612
 C       -0.186697974     9.827893228     2.677856367
 C       -0.997207391     8.716970919     2.927455124
 C       -0.556533471     7.454214332     2.512590960
 C        0.666327835     7.305048814     1.863054075
 C       -2.294141772     8.825670777     3.585651974
 C       -2.826168676     9.977255127     4.028341355
 C       -4.121960591    10.093917414     4.687215431
 C       -4.949826361     8.994321205     4.925004522
 C       -6.182013810     9.154345133     5.559194953
 C       -6.610054670    10.419398032     5.972550450
 C       -5.776009078    11.522832533     5.745659156
 C       -4.544383911    11.358559116     5.119802264
Si       -8.230716509    10.655401851     6.810758247
 C       -9.298698203     9.131324576     6.684940364
 C       -7.951535021    11.057387121     8.649676487
 C       -9.095431939    12.138841580     5.986944579
 C        3.049067166     6.800695060    -0.463133092
 C        4.409165291     7.841690624     2.114119109
 C       -4.213276635    12.948355589    -2.270465027
 C       -4.992066278    12.884219693     0.714945266
 C       -0.629353247    -0.906242822    -1.550431855
 C       -0.649169696    -0.916881006     1.536962279
 H        1.111651296     2.629924396    -0.878756096
 H        0.217224721     4.884840739    -0.870448676
 H       -3.467368391     3.462166326     0.844011507
 H       -2.605945167     1.188119686     0.863753264
 H       -3.273799782     5.760693755     0.397622588
 H       -0.584206653     6.689076310    -0.823236214
 H       -4.060066169     7.671465669     0.419969288
 H       -4.875654356     9.961592100     0.387461566
 H       -1.074737428    11.248756682    -1.306558057
 H       -0.310966060     8.938394450    -1.278534524
 H       -1.621422001    13.188873278     0.832561149
 H       -2.103090690    14.977847016    -1.681124965
 H       -0.608721799    16.722579529    -2.014004199
 H        1.348718006    18.052655477    -1.367778568
 H        2.104296779    15.304475066     1.885276509
 H        0.038866887    14.123842351     1.357813157
 H        4.704060504    17.728813625     1.917420556
 H        4.299744680    16.027091689     1.548137604
 H        3.263297807    16.998631543     2.647815584
 H        5.700549222    16.396316551    -4.540886055
 H        5.886272156    14.632931795    -4.437229354
 H        6.406929452    15.666115032    -3.069319801
 H        1.830412565    14.544847826    -2.939410277
 H        1.165041136    12.488099149    -1.747926111
 H        5.316150166    11.546999842    -1.070029820
 H        5.980515199    13.599639519    -2.226344714
 H        1.670217493    10.538462254    -0.587623044
 H        4.697878553     9.898996475    -0.156094762
 H        1.645636593    10.583561963     1.890996341
 H       -0.514952631    10.821825353     2.976470087
 H       -1.177050468     6.576758994     2.689457445
 H        0.951811498     6.294489320     1.556801072
 H       -2.831201304     7.879903742     3.700622804
 H       -2.286462744    10.921427555     3.907187916
 H       -4.640348900     7.999218456     4.610522948
 H       -6.788630253     8.258412044     5.714979293
 H       -6.057035454    12.534728892     6.050959914
 H       -3.903199538    12.224918422     4.964518704
 H        3.214874102    18.663637085    -1.156612822
 H        4.618687177    18.729667637    -0.084340599
 H        5.602865613    17.231011936    -1.546591974
 H        4.636257572    15.999752169    -0.741388377
 H        2.720469589    16.538471641    -2.452201150
 H        3.921634854    17.505557048    -3.349724016
 H        2.263516977    -1.028649621     0.061354212
 H        2.259294351     0.561285535     0.867012084
 H        2.276999470     0.461421540    -0.914561448
 H      -10.283788835     9.294940088     7.157219637
 H       -8.831852535     8.262937377     7.181969188
 H       -9.478239583     8.859674963     5.628971996
 H       -8.981528282    11.132497314     9.104398487
 C       -7.184599127     9.942966743     9.385227908
 C       -7.227225873    12.394183676     8.889454704
 H       -8.433798015    13.031612947     6.186492151
 C       -9.217454232    11.977032458     4.460559316
 C      -10.485407495    12.442133952     6.573202445
 H        2.642849096     5.912152347     0.102202378
 C        2.110922242     7.088532707    -1.648234756
 C        4.434465869     6.416024528    -1.012713066
 H        5.391907822     7.739761105     1.570539432
 C        4.549919693     8.975873836     3.145381378
 C        4.131587049     6.522047753     2.854842373
 H       -4.418332177    14.057594488    -2.283696779
 C       -3.165156387    12.641813813    -3.356320065
 C       -5.520247768    12.217104786    -2.625349660
 H       -5.838722957    12.201413091     0.411374953
 C       -4.601399545    12.543430152     2.161610661
 C       -5.511405382    14.332731363     0.667088834
 H       -0.161851334    -1.932436723    -1.519207267
 C       -2.158895512    -1.078155172    -1.574365283
 C       -0.188627894    -0.219859982    -2.856285707
 H       -1.774188155    -0.920980423     1.443974927
 C       -0.180258629    -2.380399259     1.622360266
 C       -0.286907951    -0.197393320     2.849030104
 H       -7.681099430     8.965368253     9.336016432
 H       -7.095384223    10.188602064    10.453213402
 H       -6.158087488     9.813727295     9.012802526
 H       -7.751541163    13.257596427     8.461001937
 H       -6.198408514    12.396862849     8.502576144
 H       -7.147927035    12.589373329     9.968947983
 H       -8.250159010    11.816307773     3.962851053
 H       -9.643955508    12.888265275     4.017714767
 H       -9.880379896    11.152064930     4.168230473
 H      -10.468374394    12.638553410     7.653043348
 H      -11.211648972    11.639008824     6.390843995
 H      -10.902157281    13.344949994     6.103448494
 H        1.085403237     7.338928637    -1.341538439
 H        2.036927818     6.204680099    -2.297260123
 H        2.471186967     7.908805783    -2.286456343
 H        5.143362364     6.108421309    -0.233663198
 H        4.904777885     7.221534245    -1.592787555
 H        4.342758395     5.559958422    -1.696838527
 H        4.806320232     9.944793438     2.695996665
 H        5.354979074     8.742155864     3.856141468
 H        3.640957785     9.119838948     3.747594392
 H        4.107191555     5.646987527     2.192589288
 H        3.188406083     6.539503499     3.420693974
 H        4.925251851     6.328714051     3.590595875
 H       -2.209912945    13.163046537    -3.205049970
 H       -3.537967529    12.958639969    -4.340195894
 H       -2.945366649    11.567568374    -3.442885531
 H       -6.353595764    12.463272905    -1.954874357
 H       -5.409774326    11.123302269    -2.634699422
 H       -5.847135858    12.499436754    -3.636475125
 H       -4.247924529    11.507998223     2.287234390
 H       -5.475791718    12.642109566     2.822612046
 H       -3.829060143    13.211727400     2.564701021
 H       -5.896033181    14.625833802    -0.317767603
 H       -4.750861495    15.069935682     0.960243610
 H       -6.346306400    14.455328347     1.372159779
 H       -2.545429758    -1.654245940    -0.724115317
 H       -2.461377502    -1.626240934    -2.478543259
 H       -2.696414714    -0.119597925    -1.603854012
 H        0.900693621    -0.132240408    -2.956978102
 H       -0.616970175     0.785861570    -2.975476249
 H       -0.530876011    -0.803830939    -3.722752830
 H       -0.465130564    -2.979788706     0.748022316
 H       -0.638757984    -2.870953681     2.493343038
 H        0.905761520    -2.475376918     1.753646793
 H       -0.635236999     0.844732741     2.883794884
 H        0.792557971    -0.191178996     3.050601671
 H       -0.757688201    -0.707601989     3.701404611

