187   

Si        0.000000000     0.000000000     0.000000000
 C        1.865348041     0.000000000     0.000000000
 C       -0.673261773     1.713637515     0.000000000
 C        0.137109253     2.804235426    -0.331332112
 C       -0.380501603     4.099295165    -0.328978048
 C       -1.718934929     4.333471126    -0.002839410
 C       -2.530790402     3.239141394     0.324391122
 C       -2.016570499     1.945379326     0.325084190
 C       -2.302283201     5.670978088     0.012353069
 C       -1.632996490     6.799338968    -0.278715921
 C       -2.212468490     8.138410365    -0.264698432
 C       -3.550739560     8.377582932     0.060884305
 C       -4.062570703     9.674505286     0.061534700
 C       -3.240722456    10.761951034    -0.253259779
 C       -1.899341627    10.526526857    -0.579299192
 C       -1.394575749     9.228707331    -0.589052433
Si       -3.903404962    12.477862847    -0.256055027
 C       -2.531925453    13.667347644    -0.047005422
 C       -2.301258443    14.742552328    -0.811630029
 C       -1.187427518    15.670262351    -0.606836376
 C       -1.045714806    16.763659323    -1.472152003
 C       -0.008480914    17.670256703    -1.320451050
 C        0.903651030    17.542438061    -0.250960385
 C        0.759763683    16.444698720     0.619832801
 C       -0.255302651    15.517965658     0.423658166
 N        1.956214524    18.463462639    -0.098057957
 C        1.745661626    19.824191935    -0.622530171
 C        2.661025144    18.457980595     1.195810232
 C        0.608772568    20.576597551     0.087293785
 C        0.364170698    21.938339920    -0.582215170
 N       -0.711240259    22.714412440     0.061216338
 C       -0.510701440    23.093558580     1.402313317
 C        0.791845998    23.365638771     1.872868203
 C        0.999149275    23.739450114     3.191025951
 C       -0.075256486    23.908418530     4.075423516
 C       -1.367377298    23.669716613     3.599326161
 C       -1.590993370    23.275323461     2.286715712
 C       -2.053224436    22.223071153    -0.296763065
 C        0.198684952    24.304342540     5.458123514
 C       -0.749879463    24.493273657     6.384561862
Si       -0.472231547    24.986348987     8.122237238
 C       -1.391194283    23.850152527     9.239331739
 C       -1.762410549    22.576033499     8.796944947
 C       -2.459112985    21.710211463     9.639006822
 C       -2.789723052    22.093148012    10.941808542
 C       -2.410594946    23.367623224    11.384414025
 C       -1.718417812    24.236598018    10.544931409
 C       -3.517412492    21.220481068    11.857350908
 C       -3.937811501    19.979375210    11.559619540
 C       -4.665465368    19.106601375    12.474949395
 C       -5.000047925    19.490141017    13.776213126
 C       -5.696841174    18.623700759    14.618306325
 C       -6.068381087    17.349448505    14.178234252
 C       -5.733352424    16.962077235    12.873682536
 C       -5.043439520    17.831432918    12.033324776
Si       -6.988183564    16.195478043    15.278647482
 C       -6.940594240    16.759468248    17.056138254
 C       -8.803501254    16.098184418    14.714258822
 C       -6.212387800    14.464675484    15.117416761
 C        1.375230709    24.937631760     8.569329068
 C       -1.110903632    26.763667844     8.355276623
 C       -4.839328414    12.778072680    -1.883845983
 C       -5.116595014    12.694998353     1.194009394
 C       -0.618582890    -0.918500842    -1.547896206
 C       -0.656521919    -0.905570715     1.540258577
 H        1.191418478     2.684234976    -0.595654071
 H        0.272539150     4.931177114    -0.586731385
 H       -3.576170699     3.399345871     0.581288297
 H       -2.697580130     1.131587176     0.589412576
 H       -3.360790651     5.705904031     0.285613002
 H       -0.574222997     6.762962756    -0.552292844
 H       -4.207136109     7.547849276     0.315711348
 H       -5.117543160     9.799617924     0.319965882
 H       -1.213276311    11.340636485    -0.835981510
 H       -0.350794991     9.063096651    -0.849396949
 H       -1.877449880    13.428046480     0.808080615
 H       -2.936977857    15.012991030    -1.664702381
 H       -1.754722105    16.900223631    -2.289315010
 H        0.089347822    18.484178104    -2.032421036
 H        1.445111660    16.300971868     1.449249266
 H       -0.330907061    14.666622454     1.102756034
 H        3.437305300    19.241252714     1.207888366
 H        3.182214197    17.491469477     1.320721878
 H        1.993243700    18.619356526     2.058313575
 H       -2.082821907    21.954641068    -1.366173629
 H       -2.787736804    23.036070035    -0.152782482
 H       -2.370741936    21.344868841     0.289457500
 H        1.644860645    23.277787043     1.206590136
 H        2.017017952    23.920008009     3.538097479
 H       -2.223337111    23.793681462     4.265444919
 H       -2.611390591    23.099623367     1.961135316
 H        1.268700667    24.430837192     5.667611809
 H       -1.817470066    24.366257526     6.137051832
 H       -1.526838524    22.220416094     7.788308434
 H       -2.741954446    20.725763213     9.270773218
 H       -2.658755909    23.684730856    12.395372262
 H       -1.449750480    25.218520155    10.943769732
 H       -3.710522528    21.651967080    12.843867297
 H       -3.744361838    19.548138254    10.572928039
 H       -4.718299377    20.474789567    14.144850441
 H       -5.931303016    18.980744678    15.624964933
 H       -5.997183598    15.978262431    12.475437996
 H       -4.793752713    17.513168259    11.022884617
 H        2.702375005    20.386646675    -0.528317708
 H        1.549523907    19.752856839    -1.716954559
 H       -0.318257766    19.970510218     0.072954460
 H        0.849164924    20.714734176     1.159309446
 H        1.293734356    22.552053673    -0.577531114
 H        0.101771873    21.803054347    -1.656124513
 H        2.263421761    -1.029020146     0.055069100
 H        2.260853050     0.555656938     0.869737366
 H        2.275290672     0.466295324    -0.912919302
 H       -7.450823954    16.036043775    17.716904557
 H       -7.435563821    17.737341518    17.189034955
 H       -5.899060189    16.857015609    17.412817209
 H       -9.319003980    15.426081448    15.459684460
 C       -9.504381621    17.468828373    14.742474639
 C       -8.981860766    15.482327699    13.315024935
 H       -6.326907785    14.174335270    14.032491530
 C       -4.709308891    14.459026355    15.449789413
 C       -6.918333935    13.393970447    15.968188533
 H        1.899088148    25.567959904     7.793591989
 C        1.683898440    25.534192886     9.954265004
 C        1.956921985    23.513426134     8.504499587
 H       -0.892114047    27.035076124     9.428405988
 C       -0.395590930    27.782588342     7.450945567
 C       -2.630155918    26.877278333     8.136915535
 H       -5.135405396    13.866895864    -1.875290194
 C       -3.958772976    12.528702872    -3.122024092
 C       -6.122175689    11.937478725    -2.013318306
 H       -5.956278169    11.964211339     1.009380211
 C       -4.479132428    12.352420891     2.552372283
 C       -5.722278195    14.107740325     1.265425135
 H       -0.134325168    -1.937019044    -1.513030795
 C       -2.144697110    -1.116956124    -1.575302016
 C       -0.187313373    -0.229530740    -2.855587930
 H       -1.781134320    -0.907610430     1.441722803
 C       -0.190252470    -2.369097916     1.637506487
 C       -0.300104738    -0.177468621     2.848953520
 H       -9.493906374    17.944504651    15.731555162
 H      -10.562886631    17.356446884    14.467279938
 H       -9.074471690    18.182806939    14.025151896
 H       -8.584427295    14.462748344    13.233483908
 H       -8.523807742    16.088191116    12.520458889
 H      -10.051593027    15.414280023    13.068728167
 H       -4.126820464    15.160979888    14.835880896
 H       -4.285293564    13.462267742    15.261987734
 H       -4.501226990    14.689824502    16.502956060
 H       -7.986873977    13.290999479    15.739174712
 H       -6.823251197    13.573362638    17.047335867
 H       -6.467894715    12.408402348    15.780208417
 H        1.393219337    26.588117893    10.049312404
 H        2.766072235    25.496933381    10.146538631
 H        1.209598327    24.978316574    10.775366835
 H        1.817169524    23.025027257     7.530552473
 H        1.533588219    22.845981256     9.269186987
 H        3.040640854    23.539414983     8.684957298
 H        0.689087762    27.823192156     7.613685474
 H       -0.774643522    28.794967931     7.650965590
 H       -0.564525551    27.597402642     6.380308920
 H       -3.214506082    26.204048728     8.779897401
 H       -2.928606313    26.685364741     7.097106045
 H       -2.969387077    27.896229412     8.371641690
 H       -3.034326142    13.122173913    -3.131577618
 H       -4.507394145    12.796118758    -4.035899460
 H       -3.671316535    11.473046902    -3.233593495
 H       -6.855493621    12.136599942    -1.221602779
 H       -5.926161772    10.855934511    -2.026917589
 H       -6.627401907    12.167132730    -2.962766299
 H       -4.059052434    11.337449428     2.592911042
 H       -5.236713932    12.402506639     3.347312536
 H       -3.683398890    13.052995244     2.840728987
 H       -6.270736913    14.392745245     0.358504970
 H       -4.970114371    14.886333030     1.457857334
 H       -6.444134730    14.166610025     2.092486791
 H       -2.525999228    -1.684611736    -0.717133837
 H       -2.433077299    -1.686138049    -2.471085982
 H       -2.697675726    -0.168272341    -1.625489073
 H        0.900525430    -0.122459535    -2.954464188
 H       -0.632816603     0.768062365    -2.979643850
 H       -0.517044992    -0.822845561    -3.720483833
 H       -0.470187933    -2.973705790     0.765225285
 H       -0.654902385    -2.853670320     2.508582550
 H        0.894786161    -2.464560848     1.776457613
 H       -0.652906338     0.863509028     2.876234933
 H        0.778605483    -0.166157981     3.053995960
 H       -0.771996091    -0.683968295     3.702912597

