187   

Si        0.000000000     0.000000000     0.000000000
 C        1.865499687     0.000000000     0.000000000
 C       -0.676298661     1.712028826     0.000000000
 C        0.149044012     2.814564823     0.242349050
 C       -0.374890463     4.107183642     0.239789938
 C       -1.734152963     4.327033744     0.002423150
 C       -2.560505333     3.220844478    -0.237290994
 C       -2.039971723     1.929740636    -0.239265324
 C       -2.325291533     5.661078256    -0.009621939
 C       -1.644610763     6.800484693     0.201244626
 C       -2.233478599     8.135506245     0.189695054
 C       -3.593312799     8.357110547    -0.047649218
 C       -4.114042179     9.650097630    -0.049583342
 C       -3.280299143    10.751289143     0.175346331
 C       -1.917801696    10.533619520     0.412058366
 C       -1.403119749     9.239454072     0.422852131
Si       -3.967947689    12.454379300     0.172487088
 C       -2.640026724    13.681671810    -0.105068502
 C       -2.410219212    14.776146172     0.630966073
 C       -1.328969731    15.729976670     0.364539429
 C       -1.187180934    16.843485567     1.208200316
 C       -0.180340668    17.772554595     0.996445292
 C        0.702489727    17.611207912    -0.083591860
 C        0.572372693    16.504519331    -0.927902197
 C       -0.431286574    15.568672883    -0.693602583
 N        1.712720906    18.623366745    -0.222786330
 C        1.241326847    19.752755923    -1.056567374
 C        3.026716584    18.100242535    -0.636965182
 C        1.214472283    19.477025564    -2.572819710
 C        0.330503052    20.489064731    -3.327912164
 N       -1.017742113    20.004084224    -3.697298200
 C       -1.837938107    19.735193227    -2.555774711
 C       -2.404440708    20.847289457    -1.910263377
 C       -3.211224549    20.665403220    -0.796504161
 C       -3.454542721    19.381716840    -0.287774429
 C       -2.902533266    18.282486120    -0.950546874
 C       -2.126477870    18.447130527    -2.091782237
 C       -0.982291306    18.917934206    -4.693482715
 C       -4.312582055    19.229470775     0.890948618
 C       -4.600315778    18.045289077     1.445590377
Si       -5.654365425    17.750498181     2.908737526
 C       -6.864518022    16.440618628     2.460964458
 C       -7.276666568    16.302702203     1.131468323
 C       -8.193479548    15.314633216     0.775823854
 C       -8.710242778    14.440656323     1.735988989
 C       -8.297795320    14.583443990     3.067584421
 C       -7.390761539    15.576353456     3.428594210
 C       -9.670871797    13.393765059     1.405814677
 C      -10.143212046    13.155574406     0.170531154
 C      -11.103731432    12.109904135    -0.163878819
 C      -11.633392230    11.239388065     0.791908346
 C      -12.549942659    10.253132937     0.428004577
 C      -12.960520284    10.119672806    -0.902033080
 C      -12.430016676    10.991361995    -1.862892080
 C      -11.511354086    11.971248296    -1.497457230
Si      -14.169542210     8.823078611    -1.398618102
 C      -15.010717142     8.064647015     0.083292425
 C      -15.458962822     9.618261008    -2.551070044
 C      -13.264655864     7.450510141    -2.358071085
 C       -4.563323125    17.209962925     4.368710482
 C       -6.597541280    19.320316592     3.415879047
 C       -5.209160418    12.646703113    -1.259690342
 C       -4.889491999    12.769651338     1.803475884
 C       -0.659246366    -0.898386540    -1.543230078
 C       -0.608857451    -0.926731273     1.547185134
 H        1.219715781     2.705913483     0.436259869
 H        0.289990695     4.948536904     0.426824091
 H       -3.622117750     3.369921436    -0.425010849
 H       -2.732637410     1.106490576    -0.435367011
 H       -3.400685238     5.683565808    -0.208300956
 H       -0.569071787     6.777227016     0.400417833
 H       -4.259447609     7.516262507    -0.231178668
 H       -5.186557894     9.762084507    -0.235308527
 H       -1.222228427    11.358346643     0.597128240
 H       -0.342330424     9.087644691     0.612863809
 H       -2.014680175    13.446346071    -0.983241016
 H       -3.018064026    15.039030102     1.507268845
 H       -1.873631521    16.985258290     2.044562879
 H       -0.066211586    18.633652961     1.654088017
 H        1.256231612    16.364270823    -1.759571950
 H       -0.513450377    14.705183013    -1.354001321
 H        3.767201527    18.914648887    -0.557737739
 H        3.065987805    17.691486777    -1.656868146
 H        3.331022183    17.306297675     0.067707103
 H       -0.525747545    19.309774901    -5.618878847
 H       -2.016309487    18.618437560    -4.939286301
 H       -0.423691635    18.021685879    -4.383771203
 H       -2.212725551    21.845261122    -2.299353305
 H       -3.654641422    21.533541746    -0.310697096
 H       -3.098966480    17.268924020    -0.590497144
 H       -1.716090189    17.571814737    -2.588695653
 H       -4.695135384    20.181048855     1.278195771
 H       -4.187662999    17.109777825     1.023509188
 H       -6.900480904    16.955647211     0.335735898
 H       -8.507677713    15.231016918    -0.263383101
 H       -8.692235429    13.915464445     3.830553868
 H       -7.109297431    15.645612664     4.482662750
 H      -10.001118494    12.789021148     2.255055277
 H       -9.813520575    13.761765155    -0.678749193
 H      -11.332838035    11.324412458     1.834719235
 H      -12.929420190     9.601365474     1.219874020
 H      -12.714471911    10.933954976    -2.917432418
 H      -11.109350587    12.637757020    -2.258407013
 H        0.220823240    20.033063356    -0.703246342
 H        1.902759621    20.619124091    -0.835074206
 H        2.241571764    19.502921770    -2.976925834
 H        0.847029635    18.448180816    -2.753071762
 H        0.200584591    21.418531607    -2.729009337
 H        0.833626250    20.801963495    -4.270673261
 H        2.263402648    -1.029709799    -0.040697619
 H        2.274627386     0.478848802     0.906886028
 H        2.261740233     0.543288358    -0.877063771
 H      -15.766203927     7.320185429    -0.225693886
 H      -15.530310597     8.835218685     0.681459623
 H      -14.290869820     7.552200234     0.745296875
 H      -14.881075178    10.010481872    -3.438044942
 C      -16.509375068     8.623537782    -3.075937797
 C      -16.179926091    10.809782763    -1.895090377
 H      -14.045678456     6.665845691    -2.576170662
 C      -12.674585221     7.920708395    -3.699565215
 C      -12.144991168     6.792614716    -1.530735111
 H       -5.259015223    17.128547368     5.253940784
 C       -3.899834097    15.838164912     4.163942504
 C       -3.475162690    18.243113976     4.712566453
 H       -5.815092480    20.118244295     3.572050722
 C       -7.564414475    19.804578733     2.319942846
 C       -7.382660260    19.159362811     4.729736412
 H       -6.099875129    12.010034858    -0.985876062
 C       -5.690437848    14.097181660    -1.432656446
 C       -4.656282588    12.138070269    -2.602496230
 H       -5.155952033    13.868320721     1.808211778
 C       -6.199000920    11.972193416     1.930472528
 C       -4.010869606    12.476864293     3.033258867
 H       -1.784040290    -0.892879808    -1.446640683
 C       -0.296086007    -0.169385421    -2.849594499
 C       -0.202066165    -2.364531915    -1.643071855
 H       -0.105561486    -1.936192338     1.514243539
 C       -0.192721530    -0.228037895     2.854695303
 C       -2.130736663    -1.155016696     1.573824375
 H      -16.072616396     7.776230490    -3.620181341
 H      -17.183197026     9.128242686    -3.783657089
 H      -17.148976695     8.216775431    -2.281436048
 H      -15.492738590    11.591824053    -1.541496130
 H      -16.810788427    10.515394882    -1.045916196
 H      -16.847030370    11.293807704    -2.622642264
 H      -13.424908963     8.333806454    -4.385525446
 H      -12.214645484     7.071097085    -4.225275586
 H      -11.879815558     8.669931401    -3.576808911
 H      -12.498171126     6.354782221    -0.588238647
 H      -11.327756397     7.487393436    -1.289277406
 H      -11.690268556     5.969184769    -2.100019232
 H       -4.612249590    15.041551228     3.904369950
 H       -3.405167793    15.516093453     5.091476268
 H       -3.118602200    15.851953985     3.390851917
 H       -3.878731583    19.227116311     4.983055467
 H       -2.751809067    18.394361081     3.898059058
 H       -2.893814159    17.903007066     5.581565082
 H       -7.078029682    19.984139869     1.351353841
 H       -8.023511723    20.758386936     2.616006486
 H       -8.395060447    19.105326908     2.145928890
 H       -6.746390924    18.924599829     5.592439122
 H       -8.166000200    18.390577060     4.670173556
 H       -7.897465538    20.099337144     4.977547091
 H       -6.128729772    14.520634899    -0.517064346
 H       -6.474146806    14.144599754    -2.201139279
 H       -4.891476083    14.776719057    -1.762088758
 H       -4.325913059    11.090443672    -2.569796702
 H       -3.815780061    12.738214857    -2.975724353
 H       -5.437910505    12.188219163    -3.373764380
 H       -6.935113068    12.217969963     1.151774574
 H       -6.690635992    12.212208458     2.885300494
 H       -6.048372880    10.884964718     1.925739855
 H       -3.084708640    13.066832533     3.060560285
 H       -3.728438528    11.417138674     3.113232229
 H       -4.560928255    12.713767613     3.955117694
 H       -0.642755113     0.873744521    -2.874793668
 H       -0.769827728    -0.670683271    -3.705549979
 H        0.782921546    -0.164198461    -3.052932777
 H       -0.490544140    -2.970171755    -0.774266278
 H        0.883036024    -2.466669150    -1.776610087
 H       -0.665153275    -2.843057517    -2.518270830
 H        0.892597890    -0.098313169     2.954456342
 H       -0.511103110    -0.827167371     3.719801975
 H       -0.658313002     0.760584532     2.977186538
 H       -2.502847897    -1.717367780     0.708223510
 H       -2.701336616    -0.217894560     1.639030564
 H       -2.406307789    -1.742502626     2.461815867

