187   

Si        0.000000000     0.000000000     0.000000000
 C        1.865058760     0.000000000     0.000000000
 C       -0.680613230     1.710578702     0.000000000
 C        0.104324021     2.798870593     0.394324847
 C       -0.420965155     4.090990803     0.390707079
 C       -1.741912546     4.324053354    -0.000643415
 C       -2.528771658     3.231963963    -0.390370559
 C       -2.007234056     1.941313441    -0.388357698
 C       -2.334980577     5.656985118    -0.020685108
 C       -1.694978576     6.786571880     0.326389920
 C       -2.292260066     8.117858276     0.304797194
 C       -1.510387272     9.214321013     0.692877945
 C       -2.038049521    10.502805552     0.688043301
 C       -3.365709549    10.723562003     0.300273194
 C       -4.148294472     9.631361026    -0.088114511
 C       -3.614101382     8.343294964    -0.088892478
Si       -4.068779527    12.422516773     0.291611834
 C       -5.895507257    12.336008933     0.282958384
 C       -6.707164617    12.993490678    -0.554758107
 C       -8.168537624    12.894572828    -0.526078985
 C       -8.912210976    13.634624121    -1.458553073
 C      -10.295785987    13.576209469    -1.473622987
 C      -10.981758026    12.791230359    -0.524721961
 C      -10.242830487    12.045963250     0.405313584
 C       -8.852478854    12.086401367     0.384832914
 N      -12.398091760    12.777346825    -0.598230791
 C      -13.049077310    14.084145676    -0.376356919
 C      -13.067560220    11.658727331     0.082273974
 C      -13.354758233    14.457491554     1.084960351
 C      -12.110598520    14.707440688     1.957269829
 N      -11.420279451    15.987985091     1.732596433
 C      -12.191862978    17.157093937     1.733239510
 C      -13.282766101    17.270578656     2.624269653
 C      -14.057496792    18.418177477     2.640109752
 C      -13.754355214    19.511305603     1.815271238
 C      -12.656707159    19.408431301     0.956303975
 C      -11.879712028    18.258552898     0.912572647
 C      -10.290716077    15.918625918     0.797153851
 C      -14.606805690    20.699756104     1.872127631
 C      -14.412141862    21.798930823     1.131595821
Si      -15.441484267    23.308282750     1.160816604
 C      -15.905971392    23.775208913    -0.557204292
 C      -15.837289500    22.833512189    -1.589166155
 C      -16.188768998    23.184945374    -2.891988390
 C      -16.625440091    24.478663309    -3.189735185
 C      -16.699056192    25.418373694    -2.152608815
 C      -16.344851659    25.072331828    -0.851277674
 C      -17.003317824    24.890789099    -4.537552038
 C      -16.978585212    24.091373178    -5.617496060
 C      -17.356411765    24.503298579    -6.965348992
 C      -17.789075500    25.797602945    -7.264823663
 C      -18.140674865    26.148484994    -8.568186843
 C      -18.072310465    25.208337976    -9.600970620
 C      -17.639251921    23.909026903    -9.303009189
 C      -17.284250037    23.563103636    -8.002201429
Si      -18.532780991    25.655389858   -11.326322937
 C      -19.430996820    27.288878455   -11.395251866
 C      -16.960217284    25.776528831   -12.391939579
 C      -19.633522782    24.270029696   -12.028341962
 C      -17.022747802    23.044467170     2.183681399
 C      -14.432200231    24.717796918     1.945862656
 C       -3.521554724    13.343682544     1.863860682
 C       -3.416555277    13.361638231    -1.227465424
 C       -0.649987335    -0.912327280    -1.539614555
 C       -0.621087964    -0.917569680     1.547385802
 H        1.144588360     2.679145216     0.709413255
 H        0.211857267     4.921463507     0.698380440
 H       -3.560363027     3.391383498    -0.698692842
 H       -2.669202309     1.129288079    -0.702079982
 H       -3.378151509     5.687681509    -0.349534812
 H       -0.652098226     6.757543605     0.655013411
 H       -0.478182728     9.059887235     1.001258417
 H       -1.381071620    11.319657134     0.999333723
 H       -5.190177400     9.746340932    -0.404409900
 H       -4.241427396     7.509615280    -0.399244402
 H       -6.301841514    11.675560891     1.067666498
 H       -6.334946871    13.662900730    -1.341216450
 H       -8.395358350    14.254571146    -2.191819917
 H      -10.861179105    14.121886820    -2.226766570
 H      -10.745214876    11.426499427     1.142290255
 H       -8.295721387    11.486935041     1.106860699
 H      -14.138661909    11.668215793    -0.185645268
 H      -12.982149035    11.673408554     1.179950551
 H      -12.647651276    10.707284856    -0.291151615
 H       -9.737347447    14.971490233     0.939406409
 H       -9.582193609    16.737241343     1.021261292
 H      -10.587202065    15.979720622    -0.262659078
 H      -13.516962059    16.456315681     3.303272390
 H      -14.907787999    18.476224787     3.320317249
 H      -12.398574428    20.244166794     0.303515360
 H      -11.040035563    18.218669867     0.226514633
 H      -15.435295619    20.603173963     2.585942409
 H      -13.564202880    21.867204833     0.429659013
 H      -15.508106685    21.803883240    -1.414145686
 H      -16.122134312    22.436488120    -3.679339319
 H      -17.036747742    26.431017821    -2.363863246
 H      -16.420526640    25.847079967    -0.083417403
 H      -17.322344052    25.933588172    -4.624443989
 H      -16.660218399    23.048321007    -5.530542460
 H      -17.854776526    26.547142476    -6.478255847
 H      -18.471216605    27.176438994    -8.740777470
 H      -17.566657041    23.132276340   -10.069484966
 H      -16.949202956    22.549431729    -7.790634235
 H      -12.432532628    14.884278637    -0.843181902
 H      -14.006456002    14.057993704    -0.951308721
 H      -13.996614087    15.364310835     1.083833013
 H      -13.972115741    13.670008833     1.556059997
 H      -12.403613006    14.676953312     3.034690151
 H      -11.379017333    13.877744292     1.823249527
 H        2.263123212    -1.029615276    -0.041606887
 H        2.275705005     0.478778972     0.906109804
 H        2.259827479     0.544485077    -0.877190533
 H      -19.739357218    27.530389563   -12.428132662
 H      -18.798434682    28.118861809   -11.034514056
 H      -20.344409923    27.265408011   -10.773550286
 H      -17.308027430    26.111547879   -13.411752189
 C      -15.965889819    26.824326868   -11.858671242
 C      -16.221951325    24.436236396   -12.557945287
 H      -19.006760249    23.331580982   -11.998347856
 C      -20.889274728    24.024369391   -11.172470134
 C      -20.059761224    24.504929481   -13.488374783
 H      -16.682364196    22.654062334     3.186345519
 C      -17.821594975    24.338023344     2.422593705
 C      -17.958416471    21.995848823     1.554052379
 H      -15.115838672    25.614974246     1.969595889
 C      -13.996356374    24.412072197     3.389546502
 C      -13.191625374    25.088260083     1.113693660
 H       -2.396399258    13.410539395     1.810174118
 C       -4.081025827    14.774730907     1.946264703
 C       -3.891301670    12.584418499     3.150367482
 H       -3.961991530    14.349490844    -1.239787755
 C       -1.906694274    13.652886112    -1.165151288
 C       -3.723888559    12.627591954    -2.545614587
 H       -1.774568297    -0.923765571    -1.442319927
 C       -0.298109152    -0.183248825    -2.848971093
 C       -0.172187207    -2.372280183    -1.634811060
 H       -0.141779381    -1.938399308     1.512330215
 C       -0.187344285    -0.231079927     2.855515879
 C       -2.148203082    -1.108962450     1.573255556
 H      -16.392323179    27.832945304   -11.784336769
 H      -15.103804585    26.904852744   -12.536254381
 H      -15.557889704    26.562096906   -10.871810717
 H      -16.838679895    23.652554430   -13.015689535
 H      -15.827990685    24.045421821   -11.609170742
 H      -15.352459484    24.566306484   -13.218830673
 H      -20.660147379    23.794615169   -10.121920701
 H      -21.447243495    23.160381144   -11.560603423
 H      -21.587372776    24.871886304   -11.180711800
 H      -19.212031418    24.620380335   -14.176044559
 H      -20.710110009    25.381417082   -13.609046807
 H      -20.636288563    23.642732495   -13.854068950
 H      -17.254058995    25.107515094     2.961250858
 H      -18.707198870    24.123963701     3.038541691
 H      -18.199036625    24.786170949     1.492725560
 H      -17.478044036    21.022116354     1.386656905
 H      -18.378335188    22.323192002     0.591905224
 H      -18.815496246    21.808220242     2.215720393
 H      -14.838540170    24.223916356     4.067786023
 H      -13.449914060    25.269334518     3.807910824
 H      -13.315870363    23.550939062     3.457892890
 H      -13.428954423    25.361477767     0.075856496
 H      -12.441732032    24.285841896     1.082774777
 H      -12.689997728    25.961938692     1.553590281
 H       -3.785727684    15.407260363     1.099213111
 H       -3.702715934    15.275229980     2.849318662
 H       -5.177979768    14.802925045     2.016579484
 H       -3.490915811    11.561168889     3.183008863
 H       -4.975656311    12.522273176     3.315046467
 H       -3.476272960    13.103442763     4.026329073
 H       -1.615307259    14.262841699    -0.300607179
 H       -1.596554535    14.218215482    -2.056287099
 H       -1.294271469    12.740147406    -1.156171637
 H       -4.791484525    12.415068942    -2.693185410
 H       -3.184935982    11.673226797    -2.637180179
 H       -3.409754844    13.240929171    -3.401879380
 H       -0.656997914     0.855609852    -2.877433299
 H       -0.766653835    -0.693303637    -3.702658441
 H        0.780530269    -0.165571734    -3.054095956
 H       -0.451511163    -2.979097891    -0.763844059
 H        0.914101301    -2.459912755    -1.769114825
 H       -0.629278831    -2.860281223    -2.507987677
 H        0.900888673    -0.128092725     2.954430519
 H       -0.519161748    -0.824001069     3.719947075
 H       -0.629489997     0.767873622     2.980439902
 H       -2.530359979    -1.678568265     0.716720807
 H       -2.697405635    -0.157763743     1.617808720
 H       -2.440857158    -1.673100495     2.470832288

