187   

Si        0.000000000     0.000000000     0.000000000
 C        1.864646198     0.000000000     0.000000000
 C       -0.689344201     1.707491278     0.000000000
 C        0.149898040     2.814697884    -0.158702953
 C       -0.374381098     4.106434917    -0.158359668
 C       -1.741196526     4.326597909     0.035594277
 C       -2.580409814     3.216680930     0.195015161
 C       -2.064514756     1.923686850     0.161003051
 C       -2.321191666     5.666412646     0.041445258
 C       -1.604267588     6.788757392    -0.136213884
 C       -2.135330762     8.146144082    -0.138867743
 C       -1.235835534     9.202926715    -0.340216482
 C       -1.678888759    10.521527590    -0.353849635
 C       -3.035575239    10.814126319    -0.161928009
 C       -3.934164871     9.762877000     0.047485048
 C       -3.485610169     8.441327474     0.064988481
Si       -3.598771917    12.564716081    -0.183901451
 C       -5.395016263    12.638144256    -0.496415320
 C       -6.259370818    13.342262579     0.244755534
 C       -7.699351013    13.405875616     0.000555329
 C       -8.480938211    14.188722377     0.865589040
 C       -9.848284294    14.289885765     0.688042212
 C      -10.483279912    13.560214137    -0.337938557
 C       -9.708246805    12.772428314    -1.199476887
 C       -8.326420203    12.716728985    -1.036746029
 N      -11.890828512    13.709473709    -0.465888660
 C      -12.648223666    13.377549049     0.756476535
 C      -12.493228987    13.150903218    -1.687075668
 C      -12.791849618    11.877330484     1.085339580
 C      -11.471792189    11.164889115     1.427197059
 N      -10.689060964    11.776686592     2.527889690
 C       -9.471294344    11.113055633     2.830264370
 C       -8.924464811    10.116960711     1.998590414
 C       -7.729399177     9.495783975     2.337018975
 C       -6.990514538     9.894169278     3.458167611
 C       -7.508807121    10.919766596     4.255253593
 C       -8.718263405    11.527233970     3.948422636
 C      -11.490745280    12.101190173     3.725426643
 C       -5.737322064     9.199696567     3.762846286
 C       -4.940399405     9.483983744     4.802613042
Si       -3.373696862     8.605507330     5.171545949
 C       -3.499929873     6.866049260     4.576217566
 C       -4.739815494     6.224898435     4.700794865
 C       -4.905085164     4.911316594     4.271384803
 C       -3.835324069     4.201264166     3.718327184
 C       -2.595068423     4.840325303     3.600069119
 C       -2.427647172     6.157918387     4.024455598
 C       -3.977351317     2.823740868     3.259351544
 C       -5.119681328     2.118003416     3.325838809
 C       -5.276984964     0.741378361     2.871496706
 C       -4.221740733     0.017072262     2.311513334
 C       -4.404188812    -1.296542308     1.887088806
 C       -5.654982018    -1.914650245     1.999147648
 C       -6.715058520    -1.191381318     2.557209751
 C       -6.525819947     0.119131347     2.992156046
Si       -5.838721569    -3.652524792     1.422221847
 C       -4.986550975    -3.877645567    -0.223095266
 C       -5.029678050    -4.802631403     2.706315302
 C       -7.678125394    -4.112595669     1.276311313
 C       -1.832751797     9.456857029     4.465952964
 C       -3.180760525     8.575441422     7.068522210
 C       -3.190753017    13.354804859     1.500478201
 C       -2.682702845    13.520711731    -1.548213873
 C       -0.616657281    -0.946725968    -1.531912933
 C       -0.657884113    -0.885892472     1.551006431
 H        1.229474119     2.710786334    -0.293815416
 H        0.300179607     4.948622999    -0.301405694
 H       -3.650524448     3.363747846     0.340408623
 H       -2.774464569     1.095642244     0.257725844
 H       -3.400508509     5.706906232     0.210850413
 H       -0.522942158     6.729847199    -0.299325213
 H       -0.179658440     8.992404853    -0.493922229
 H       -0.932847128    11.303465813    -0.519461424
 H       -5.002761234     9.939906851     0.212314113
 H       -4.198118314     7.637449164     0.241461923
 H       -5.729544263    12.050493501    -1.365286272
 H       -5.950078114    13.942919666     1.112217152
 H       -8.006656033    14.727792525     1.685678269
 H      -10.438115402    14.920260784     1.349281128
 H      -10.168983457    12.201371953    -1.998081013
 H       -7.736728890    12.107276746    -1.722022734
 H      -13.556222021    13.443032844    -1.729069050
 H      -12.429476088    12.054693595    -1.766876654
 H      -11.998979106    13.599054472    -2.568030129
 H      -12.457863245    12.543759121     3.444881266
 H      -10.959697067    12.868764928     4.317074339
 H      -11.682442310    11.227789475     4.368867147
 H       -9.433300365     9.801393829     1.093712857
 H       -7.349760426     8.698631965     1.695688321
 H       -6.953916980    11.258940177     5.130464915
 H       -9.077961024    12.335289287     4.578568729
 H       -5.501224553     8.404885996     3.039341241
 H       -5.188577118    10.292643125     5.505311017
 H       -5.614800255     6.726890929     5.128551762
 H       -5.880192013     4.439611529     4.373993028
 H       -1.751506724     4.308368290     3.161624417
 H       -1.438430690     6.607109379     3.902524957
 H       -3.066428901     2.383286675     2.839966161
 H       -6.025659004     2.564889738     3.744629138
 H       -3.236271576     0.476710074     2.227722162
 H       -3.538511580    -1.818289612     1.464684979
 H       -7.712410062    -1.622379794     2.674682870
 H       -7.361688028     0.662309097     3.427843522
 H      -12.167705096    13.898418644     1.617846826
 H      -13.661525007    13.827382165     0.644479605
 H      -13.516958550    11.761073895     1.913313767
 H      -13.249728089    11.350947078     0.224099113
 H      -11.694814480    10.093816877     1.640545891
 H      -10.816554850    11.197590862     0.519239094
 H        2.262693016    -1.029821616     0.031447182
 H        2.263347138     0.535050099     0.880615180
 H        2.273880994     0.485701567    -0.903056716
 H       -5.115825926    -4.907762258    -0.599356892
 H       -3.902547239    -3.678881478    -0.158014307
 H       -5.408579690    -3.191455870    -0.980231040
 H       -5.130254710    -5.845739213     2.288785548
 C       -3.530767141    -4.514962380     2.912187081
 C       -5.731825989    -4.764299964     4.075365159
 H       -8.133003122    -3.894601646     2.286409877
 C       -8.421425530    -3.265413102     0.227047405
 C       -7.915428508    -5.602227559     0.967749718
 H       -0.958526213     8.844348572     4.839313891
 C       -1.792927469     9.444079877     2.932889501
 C       -1.638882834    10.899240255     4.966618056
 H       -3.097295807     9.654098500     7.386852048
 C       -4.401896430     7.961638693     7.776363230
 C       -1.913814313     7.837996101     7.535652856
 H       -3.513825926    14.432861668     1.420815744
 C       -3.962421857    12.706743612     2.663392142
 C       -1.688184410    13.330863662     1.834064385
 H       -1.590590489    13.501236743    -1.266065207
 C       -2.827882726    12.858166869    -2.930066295
 C       -3.120372145    14.992726004    -1.649457319
 H       -0.102755388    -1.950526675    -1.493290746
 C       -2.135769628    -1.191437746    -1.552744617
 C       -0.212325493    -0.254861081    -2.846825300
 H       -1.779357352    -0.923258533     1.421106375
 C       -0.157679810    -2.333477911     1.696353573
 C       -0.359845269    -0.116445746     2.849933816
 H       -2.942143138    -4.582589757     1.988384103
 H       -3.099898943    -5.251659973     3.605469292
 H       -3.344816063    -3.527671538     3.359581536
 H       -6.791323172    -5.046951107     4.030701828
 H       -5.669587131    -3.779292986     4.559961800
 H       -5.253653054    -5.475799458     4.764077650
 H       -8.324314717    -2.182734705     0.387586235
 H       -9.498034932    -3.485857150     0.258888452
 H       -8.093826641    -3.475601932    -0.800105260
 H       -7.489627059    -6.275637070     1.722982405
 H       -7.521888253    -5.905947872    -0.011224926
 H       -8.994632857    -5.812865204     0.943360692
 H       -1.825368684     8.433879717     2.497960387
 H       -0.863497523     9.901956536     2.566924342
 H       -2.614833154    10.012708903     2.470193747
 H       -1.547512701    10.973913560     6.057100512
 H       -2.445719585    11.574819992     4.649756528
 H       -0.711039156    11.317949192     4.550736412
 H       -5.347483062     8.463162964     7.530175710
 H       -4.285237187     8.040135582     8.866268983
 H       -4.526579108     6.891304845     7.557539914
 H       -0.985489737     8.280663305     7.152626803
 H       -1.913731560     6.772990155     7.262453192
 H       -1.840174606     7.872564766     8.631994629
 H       -5.054438927    12.714780059     2.538344831
 H       -3.756876080    13.242644768     3.599616802
 H       -3.676814050    11.656324884     2.833183200
 H       -1.063354984    13.829294833     1.083141134
 H       -1.300909283    12.310391980     1.972340941
 H       -1.506077717    13.856574328     2.782289595
 H       -2.490242813    11.812372516    -2.949063580
 H       -2.215922310    13.391527032    -3.670965340
 H       -3.859049680    12.880830329    -3.308654882
 H       -2.958247288    15.559660156    -0.723801499
 H       -4.177985278    15.106345187    -1.928224737
 H       -2.540061539    15.505638184    -2.429448274
 H       -2.502053423    -1.748292878    -0.680644621
 H       -2.406579706    -1.790659993    -2.434114241
 H       -2.717295322    -0.261468513    -1.628648602
 H        0.870889060    -0.113738029    -2.952630763
 H       -0.688990377     0.727664762    -2.976225246
 H       -0.526648585    -0.863991598    -3.706333490
 H       -0.389424448    -2.964633514     0.829052336
 H       -0.639078573    -2.811027127     2.562867998
 H        0.923676004    -2.396764873     1.874057090
 H       -0.728889316     0.919101695     2.839342496
 H        0.710456469    -0.080039432     3.090582588
 H       -0.850663677    -0.609783175     3.701823718

