187   

Si        0.000000000     0.000000000     0.000000000
 C        1.865224177     0.000000000     0.000000000
 C       -0.679180562     1.711153787     0.000000000
 C        0.127483073     2.807555131    -0.320586426
 C       -0.397617561     4.099762588    -0.317435485
 C       -1.740057794     4.324825713    -0.001996608
 C       -2.548233966     3.224606235     0.314606260
 C       -2.026408304     1.934038625     0.315347308
 C       -2.332423431     5.658220509     0.013973405
 C       -1.669860884     6.793373555    -0.266145512
 C       -2.261994086     8.126884521    -0.250245606
 C       -3.604781707     8.351110344     0.065364317
 C       -4.130072955     9.642937100     0.068601251
 C       -3.324877469    10.738285443    -0.259283154
 C       -1.978501614    10.516514607    -0.578258829
 C       -1.454216088     9.226898391    -0.568107839
Si       -3.991654033    12.452716921    -0.263013024
 C       -3.197271338    13.490405939    -1.541855523
 C       -2.716759575    13.018860753    -2.700356284
 C       -2.080607635    13.847408978    -3.725326679
 C       -1.616571918    13.236730107    -4.898490335
 C       -1.006933798    13.975594446    -5.900055310
 C       -0.887503052    15.377060662    -5.784265930
 C       -1.356269692    15.991021082    -4.606123513
 C       -1.919480590    15.229228826    -3.590965420
 N       -0.268993792    16.129199747    -6.799778744
 C       -0.289184051    15.572255253    -8.163635532
 C       -0.497116011    17.584840208    -6.778608747
 C       -1.706350132    15.448111196    -8.745651338
 C       -1.667174823    14.746638955   -10.112700609
 N       -2.999363421    14.596525333   -10.723669871
 C       -3.688321096    15.773884849   -11.067331479
 C       -2.976554809    16.942516464   -11.412850395
 C       -3.653350593    18.103487641   -11.751736498
 C       -5.053136768    18.137177139   -11.812266476
 C       -5.756366752    16.969806039   -11.501404007
 C       -5.094732967    15.803576740   -11.141316618
 C       -3.791153814    13.522076711   -10.099436554
 C       -5.719106356    19.389285992   -12.175406322
 C       -7.047944608    19.532708817   -12.263011481
Si       -7.936100579    21.065801161   -12.710314699
 C       -9.255891188    21.398338843   -11.472766550
 C       -9.173636272    20.846928743   -10.189780455
 C      -10.171320912    21.095866453    -9.248009247
 C      -11.264428553    21.907652243    -9.562908871
 C      -11.340795695    22.463550038   -10.847011902
 C      -10.348941506    22.213628267   -11.791741541
 C      -12.331241009    22.195410550    -8.609780307
 C      -12.379548793    21.727250303    -7.350982368
 C      -13.446405178    22.015089632    -6.397989307
 C      -14.541850758    22.822857991    -6.713475210
 C      -15.539665901    23.071866890    -5.771115649
 C      -15.459200665    22.522189630    -4.487915736
 C      -14.361011155    21.711972797    -4.168538956
 C      -13.369911003    21.460558624    -5.113082209
Si      -16.767251692    22.840765261    -3.232405449
 C      -17.914072133    24.210954408    -3.768534358
 C      -17.791169493    21.258664106    -2.964620401
 C      -15.917510651    23.298157785    -1.591488673
 C       -6.756658308    22.555911840   -12.775999962
 C       -8.718877690    20.830987418   -14.428768405
 C       -5.869136748    12.431129469    -0.569877657
 C       -3.660105680    13.238983596     1.437364278
 C       -0.615652704    -0.920707360    -1.547916088
 C       -0.654992976    -0.906316212     1.540575138
 H        1.184667350     2.694578962    -0.576327762
 H        0.252466078     4.936509400    -0.566617999
 H       -3.596635026     3.377720756     0.563496535
 H       -2.704926546     1.115356262     0.571166151
 H       -3.393593519     5.684114107     0.278566212
 H       -0.608560496     6.767377047    -0.530414949
 H       -4.253909729     7.514292524     0.315801060
 H       -5.185416554     9.755548846     0.331129212
 H       -1.302182452    11.337358043    -0.840797126
 H       -0.405025159     9.074210240    -0.814270987
 H       -3.152497770    14.562759946    -1.299054674
 H       -2.757733387    11.953778219    -2.970336143
 H       -1.723933295    12.158177768    -5.023475580
 H       -0.628915081    13.461484032    -6.778491934
 H       -1.273083063    17.064438013    -4.469444974
 H       -2.256790609    15.729072798    -2.681588967
 H       -0.023430545    18.057788144    -7.654856293
 H       -0.011466158    18.013578620    -5.883162987
 H       -1.565027413    17.859605763    -6.773152590
 H       -3.137368583    12.676936180    -9.826423412
 H       -4.519900895    13.136536232   -10.835478106
 H       -4.332524689    13.845606829    -9.194852737
 H       -1.890763204    16.946117226   -11.408925201
 H       -3.081471289    19.000913990   -11.989870234
 H       -6.847320663    16.966218532   -11.541054037
 H       -5.681369257    14.920127952   -10.909904096
 H       -5.018047419    20.211389716   -12.369208862
 H       -7.724397898    18.682817559   -12.070442772
 H       -8.338376436    20.207516941    -9.885220385
 H      -10.089187758    20.650362759    -8.258274330
 H      -12.184261126    23.098094194   -11.111901705
 H      -10.462203035    22.672288176   -12.777731720
 H      -13.125585049    22.842146353    -8.993721622
 H      -11.585287063    21.080297441    -6.966737177
 H      -14.626444272    23.265912960    -7.704093443
 H      -16.372852993    23.710487104    -6.077225105
 H      -14.244915380    21.255811733    -3.181325525
 H      -12.525794913    20.826965284    -4.847203953
 H        0.342893964    16.218717695    -8.813969231
 H        0.219789043    14.581289713    -8.146059090
 H       -2.359045713    14.888792434    -8.046787190
 H       -2.172813359    16.447598031    -8.841308317
 H       -1.012232001    15.301216388   -10.822683217
 H       -1.212389930    13.734058549   -10.018006578
 H        2.262912048    -1.029433162     0.049948735
 H        2.260929173     0.551295356     0.872442101
 H        2.275240151     0.470844955    -0.910543727
 H      -18.671283258    24.422877817    -2.992639170
 H      -18.452971356    23.953410668    -4.697102010
 H      -17.355235326    25.146841725    -3.950784691
 H      -18.606291920    21.543253353    -2.238060358
 C      -18.458899293    20.762702377    -4.260348808
 C      -16.988778575    20.098533858    -2.348850684
 H      -15.279177158    22.408994925    -1.315432503
 C      -14.989413865    24.518620293    -1.729247017
 C      -16.904676798    23.546022069    -0.437106425
 H       -5.917709531    22.257542929   -13.469213489
 C       -7.412259726    23.827733186   -13.343233496
 C       -6.149492428    22.884845801   -11.399752863
 H       -9.228317286    21.807112378   -14.675098542
 C       -7.681148174    20.544790123   -15.528246091
 C       -9.785840607    19.721895120   -14.444009388
 H       -6.317820297    11.826846567     0.270481261
 C       -6.504862663    13.832476687    -0.537931126
 C       -6.235199316    11.748212444    -1.899971388
 H       -4.091805249    14.280108848     1.389620779
 C       -4.345093278    12.489419808     2.593211028
 C       -2.155719236    13.358916164     1.740245776
 H       -0.124322835    -1.935912788    -1.515050627
 C       -2.140318220    -1.130077725    -1.573395040
 C       -0.191138767    -0.227262659    -2.855458370
 H       -1.779558580    -0.911158350     1.442017799
 C       -0.185187485    -2.368577731     1.639115263
 C       -0.300637546    -0.176196733     2.848742118
 H      -19.121946283    21.505666411    -4.721916050
 H      -19.083593432    19.882894389    -4.049373659
 H      -17.731441274    20.447463340    -5.022263412
 H      -16.541534419    20.344527471    -1.377497786
 H      -16.187430182    19.737049505    -3.008532845
 H      -17.650027610    19.237599319    -2.172167560
 H      -14.217972682    24.391800903    -2.502351580
 H      -14.452491681    24.692602643    -0.785831153
 H      -15.531380319    25.447191526    -1.952173566
 H      -17.554441830    22.686273430    -0.228602214
 H      -17.548899378    24.419388565    -0.604161385
 H      -16.351989304    23.745880775     0.492535570
 H       -7.776973050    23.708199913   -14.371331058
 H       -6.679239241    24.647107763   -13.372226810
 H       -8.248791283    24.189416787   -12.728764138
 H       -5.624882538    22.038083093   -10.936575657
 H       -6.899710857    23.239639854   -10.678119262
 H       -5.409808738    23.691834269   -11.496372166
 H       -6.931851872    21.339300963   -15.637550387
 H       -8.180487148    20.456756582   -16.503662684
 H       -7.142498265    19.598866123   -15.372425039
 H      -10.589353985    19.880093035   -13.710892202
 H       -9.366653811    18.721877383   -14.266800113
 H      -10.272991207    19.681444458   -15.428628069
 H       -6.351913568    14.359714817     0.412283457
 H       -7.593345126    13.753937826    -0.672608274
 H       -6.142645340    14.483977555    -1.345669943
 H       -5.867123609    10.715777672    -1.977240213
 H       -5.863748035    12.296789991    -2.777789364
 H       -7.327435129    11.694912969    -2.009229148
 H       -5.437652841    12.447812117     2.498929788
 H       -4.138663635    12.998158969     3.546091449
 H       -3.979924298    11.459126029     2.711982646
 H       -1.602134952    13.931192214     0.983266757
 H       -1.662094383    12.381817862     1.844178906
 H       -2.003645212    13.882320091     2.694816953
 H       -2.515761981    -1.703574547    -0.716498842
 H       -2.426065207    -1.698304455    -2.470653852
 H       -2.700483290    -0.185473444    -1.619427386
 H        0.895698226    -0.111286127    -2.955307623
 H       -0.644721552     0.766805078    -2.978203076
 H       -0.516885073    -0.822606973    -3.720474306
 H       -0.464004163    -2.974788123     0.767593957
 H       -0.648356602    -2.853292780     2.510938802
 H        0.900137774    -2.461358024     1.777767916
 H       -0.656921158     0.863618664     2.875431554
 H        0.778010672    -0.161221217     3.053772981
 H       -0.770857722    -0.683715274     3.703052787

