187   

Si        0.000000000     0.000000000     0.000000000
 C        1.865144628     0.000000000     0.000000000
 C       -0.669742729     1.715112851     0.000000000
 C        0.069858767     2.764292233    -0.556674598
 C       -0.433739765     4.064594370    -0.558690865
 C       -1.688653078     4.345752013    -0.011593824
 C       -2.431194768     3.292869417     0.538843633
 C       -1.931256226     1.993244185     0.541723002
 C       -2.255212594     5.690334120     0.008208583
 C       -1.648565309     6.783116499    -0.485527102
 C       -2.214003366     8.128159622    -0.466346511
 C       -3.469309189     8.410170616     0.080778834
 C       -3.971425708     9.710557786     0.078038643
 C       -3.224029962    10.759052733    -0.469887793
 C       -1.967289821    10.480415398    -1.020358775
 C       -1.471676041     9.178750003    -1.020962100
Si       -3.885402985    12.474496225    -0.473980261
 C       -2.529978700    13.666456936    -0.768161190
 C       -2.538547001    14.651245195    -1.675374457
 C       -1.430673202    15.587346572    -1.880865452
 C       -1.561207349    16.578794357    -2.865966693
 C       -0.543705613    17.488339171    -3.100320620
 C        0.631387764    17.452806400    -2.321851038
 C        0.767732065    16.461449376    -1.339379425
 C       -0.246785660    15.530197483    -1.142192507
 N        1.632263573    18.413067816    -2.615730157
 C        1.223620835    19.820407612    -2.432625499
 C        2.980485269    18.116685613    -2.108945022
 C        1.419753827    20.414287485    -1.026691868
 C        0.540500861    19.779912625     0.067164931
 N       -0.873822478    20.185566425     0.064014019
 C       -1.167535078    21.553759789     0.030446218
 C       -0.326947465    22.466127726     0.707411140
 C       -0.603257944    23.822908167     0.684212363
 C       -1.742884827    24.321928808     0.036957795
 C       -2.589403659    23.414490846    -0.606041943
 C       -2.318950505    22.052848536    -0.610225046
 C       -1.770933891    19.276710643    -0.660060302
 C       -1.987347896    25.764972484     0.042691060
 C       -3.041073154    26.349275037    -0.542476000
Si       -3.398772717    28.140582023    -0.568733775
 C       -3.752273202    28.677879625    -2.292596241
 C       -3.343376761    27.893872087    -3.376339213
 C       -3.610370514    28.299411139    -4.683536145
 C       -4.281604869    29.498768575    -4.936331368
 C       -4.685098204    30.285094653    -3.848705574
 C       -4.423586883    29.881537110    -2.542060445
 C       -4.582251971    29.962627285    -6.286770957
 C       -4.252556136    29.306737574    -7.412376110
 C       -4.553123632    29.770451550    -8.762846094
 C       -5.227455805    30.967605569    -9.016426950
 C       -5.494171961    31.372918480   -10.324141181
 C       -5.085935829    30.590440862   -11.408763306
 C       -4.409321028    29.389093067   -11.157099815
 C       -4.149647420    28.984435371    -9.850727250
Si       -5.430579336    31.111991739   -13.140130072
 C       -5.952402649    32.900764418   -13.226871905
 C       -3.856506877    30.836076492   -14.174503807
 C       -6.822609204    30.031287495   -13.859597150
 C       -4.924864519    28.472326434     0.518765162
 C       -1.934015293    29.145843211     0.110125939
 C       -5.231120939    12.625060482    -1.809045001
 C       -4.659364115    12.857206093     1.221557821
 C       -0.630303774    -0.903260219    -1.552124878
 C       -0.647420237    -0.925707377     1.532557804
 H        1.057719551     2.606658173    -0.998594356
 H        0.163391167     4.863493586    -0.994641563
 H       -3.411638873     3.489355309     0.968631252
 H       -2.557746919     1.212979158     0.982594861
 H       -3.245381104     5.762846112     0.467500492
 H       -0.658506760     6.709992788    -0.945261683
 H       -4.067312027     7.611258151     0.515135468
 H       -4.958989887     9.870204990     0.519782832
 H       -1.342937675    11.261252527    -1.466442293
 H       -0.494461073     8.979273696    -1.456841263
 H       -1.664424472    13.514524602    -0.101404516
 H       -3.387104660    14.832906860    -2.347879684
 H       -2.469464933    16.625779778    -3.467630253
 H       -0.637517964    18.225172469    -3.895877151
 H        1.665461871    16.404829227    -0.731004291
 H       -0.113785283    14.756492551    -0.384347464
 H        3.690758841    18.844586464    -2.539073706
 H        3.286372292    17.115919589    -2.463959200
 H        3.073697290    18.144246138    -1.012198130
 H       -1.459086684    18.227411825    -0.501243190
 H       -1.801945607    19.458439908    -1.746865462
 H       -2.793202127    19.369328476    -0.249301020
 H        0.540081968    22.105686284     1.252479349
 H        0.070946519    24.511292151     1.194855204
 H       -3.483443829    23.775797055    -1.117392023
 H       -2.999878319    21.384436784    -1.126686746
 H       -1.213458953    26.332132829     0.576220618
 H       -3.806170713    25.748363050    -1.062116395
 H       -2.809680716    26.947563984    -3.239254873
 H       -3.286700853    27.670074294    -5.510439709
 H       -5.209246431    31.222392048    -4.024322583
 H       -4.763411101    30.534350316    -1.733401454
 H       -5.115038693    30.916882281    -6.334582705
 H       -3.719771037    28.352446095    -7.364577942
 H       -5.552549247    31.596948778    -8.189979725
 H       -6.025610709    32.318992762   -10.459288556
 H       -4.066297197    28.736866689   -11.965187874
 H       -3.624701562    28.047302448    -9.675355107
 H        1.820609853    20.416632970    -3.164763934
 H        0.159616948    19.935828812    -2.737970214
 H        2.481058634    20.332675678    -0.725993526
 H        1.218143892    21.505402971    -1.080386525
 H        0.594751030    18.668924664     0.002901799
 H        0.955927457    20.042363692     1.070519456
 H        2.263412078    -1.028915412     0.054260336
 H        2.258963509     0.555595861     0.870776666
 H        2.277024051     0.468365279    -0.910799073
 H       -6.111618694    33.218776077   -14.272721977
 H       -5.178431065    33.560342378   -12.793852653
 H       -6.893638552    33.079817127   -12.678222105
 H       -3.636576241    29.730459714   -14.113796609
 C       -4.026178282    31.201108455   -15.660010197
 C       -2.639557798    31.589989277   -13.608345192
 H       -7.021021875    30.438118189   -14.893201351
 C       -6.441449651    28.546414108   -13.997447303
 C       -8.127331404    30.131995014   -13.048243280
 H       -5.087063803    29.588626091     0.494672323
 C       -6.195310706    27.796242597    -0.026860574
 C       -4.721668496    28.051423692     1.984740044
 H       -1.696992080    28.703019124     1.120760573
 C       -0.679660190    29.023752624    -0.774581019
 C       -2.254244745    30.638192194     0.308548947
 H       -5.518549729    13.716071585    -1.836835119
 C       -4.718262982    12.226730089    -3.205051950
 C       -6.498313253    11.809000502    -1.497849161
 H       -5.511953618    12.128359106     1.345265765
 C       -3.673986984    12.636315913     2.382904683
 C       -5.232477994    14.282263450     1.312522828
 H       -0.163667012    -1.929920280    -1.522160323
 C       -2.159979974    -1.073557483    -1.575530132
 C       -0.189252522    -0.216211158    -2.857434414
 H       -1.772821583    -0.923994949     1.444117144
 C       -0.185522533    -2.392386226     1.603183593
 C       -0.275749861    -0.220490587     2.849585013
 H       -4.836074643    30.648880934   -16.153857432
 H       -3.107262798    30.958226250   -16.213260905
 H       -4.205874473    32.272492781   -15.819891760
 H       -2.420918450    31.336413841   -12.561070448
 H       -2.744168425    32.681342020   -13.669241028
 H       -1.737052080    31.333263732   -14.181110741
 H       -5.567488017    28.378564948   -14.639395887
 H       -7.270032057    27.987484484   -14.456371385
 H       -6.247494377    28.063833874   -13.029121537
 H       -8.514734909    31.155865602   -12.969363659
 H       -8.027023430    29.734546499   -12.027910496
 H       -8.918271576    29.541055870   -13.531906851
 H       -6.429742931    28.080767013    -1.062310551
 H       -7.066517495    28.089044621     0.576140137
 H       -6.147218084    26.699337894     0.013584897
 H       -3.880565175    28.561409143     2.471710821
 H       -4.566624980    26.969001494     2.101339347
 H       -5.615346038    28.299173272     2.575035512
 H       -0.354242076    27.986910541    -0.935601297
 H        0.166348801    29.544181969    -0.304339643
 H       -0.811585200    29.482786751    -1.765110137
 H       -3.081288054    30.817406322     1.007211392
 H       -2.490065070    31.154032397    -0.632864627
 H       -1.380505912    31.156762102     0.729472065
 H       -3.832601936    12.790969142    -3.527391241
 H       -5.495014887    12.412931822    -3.960025002
 H       -4.469107071    11.157913675    -3.277432292
 H       -6.984801695    12.099852672    -0.558167483
 H       -6.312345760    10.726320349    -1.460954764
 H       -7.246631173    11.962014881    -2.289310784
 H       -3.252242497    11.621493105     2.409265296
 H       -4.187648333    12.779167302     3.344474698
 H       -2.834817121    13.345153589     2.374129500
 H       -6.008578849    14.488351703     0.564298711
 H       -4.462028767    15.060925672     1.216756385
 H       -5.704074416    14.436040379     2.293854745
 H       -2.546923443    -1.650237922    -0.725849510
 H       -2.463537338    -1.620260426    -2.480164396
 H       -2.696630625    -0.114474605    -1.603374317
 H        0.900132964    -0.129061377    -2.958052336
 H       -0.617565777     0.789518974    -2.976239134
 H       -0.531538171    -0.799774667    -3.724177469
 H       -0.478099431    -2.983256187     0.725619226
 H       -0.641983615    -2.887822676     2.472483592
 H        0.900657123    -2.494108925     1.728061698
 H       -0.616743006     0.823580479     2.895636738
 H        0.804575890    -0.223343821     3.047052177
 H       -0.746432393    -0.735519948     3.699099780

