187   

Si        0.000000000     0.000000000     0.000000000
 C        1.865273830     0.000000000     0.000000000
 C       -0.677581519     1.711653656     0.000000000
 C        0.128197539     2.805646114    -0.331353549
 C       -0.394649621     4.098672638    -0.328415429
 C       -1.733785872     4.327237717    -0.001562647
 C       -2.541169196     3.229589845     0.325791093
 C       -2.021704625     1.937988665     0.325862420
 C       -2.323488024     5.661806422     0.014572539
 C       -1.661174123     6.794307064    -0.276085237
 C       -2.251200308     8.128730202    -0.259850157
 C       -1.443850473     9.226393321    -0.584863648
 C       -1.963147278    10.518955973    -0.582806808
 C       -3.301515793    10.745921284    -0.242699003
 C       -4.109642745     9.650219321     0.083551786
 C       -3.590442758     8.356935807     0.069802790
Si       -4.020661781    12.438657362    -0.229360502
 C       -5.261660274    12.629069587     1.103982386
 C       -5.192894407    11.946127248     2.254500268
 C       -6.154505530    12.057723594     3.353126526
 C       -5.943264117    11.272453852     4.497094095
 C       -6.816105119    11.331602302     5.571048191
 C       -7.922416190    12.199459241     5.529594729
 C       -8.146406862    12.976795644     4.387626476
 C       -7.277052910    12.887428516     3.303617938
 N       -8.770488788    12.196319848     6.680295665
 C       -8.148059271    12.863691272     7.846999885
 C      -10.152665184    12.643769747     6.435744529
 C       -8.075489756    14.399409863     7.741750421
 C       -6.734629757    14.984762125     8.223804986
 N       -5.643737783    14.987436717     7.227092398
 C       -5.957493885    15.500379754     5.953631825
 C       -6.848872932    16.589863926     5.843557566
 C       -7.170349750    17.108955556     4.600503793
 C       -6.592230440    16.599307010     3.429539465
 C       -5.679097231    15.547989380     3.543618830
 C       -5.346874723    15.015311204     4.782262619
 C       -4.814307071    13.771591392     7.260878303
 C       -6.971742482    17.189186617     2.146301453
 C       -6.491227700    16.792042661     0.960377488
Si       -6.975295604    17.539380234    -0.635772874
 C       -8.696082435    18.186022480    -0.583370919
 C       -9.656736031    17.531256236     0.199589241
 C      -10.964676273    18.004150604     0.253225772
 C      -11.350119670    19.132137999    -0.483579905
 C      -10.392330354    19.777221293    -1.270621815
 C       -9.079581242    19.308898245    -1.322467949
 C      -12.732901488    19.589509101    -0.394457313
 C      -13.229551319    20.656526396    -1.043164571
 C      -14.612396700    21.113786764    -0.953938530
 C      -15.570656771    20.469461812    -0.167320697
 C      -16.882154289    20.941298838    -0.111479708
 C      -17.265905177    22.065283383    -0.849567618
 C      -16.306988918    22.712377075    -1.640784145
 C      -14.997425919    22.242970489    -1.689343425
Si      -18.992629998    22.700450180    -0.786716685
 C      -20.149407109    21.467143823     0.000887699
 C      -19.037883323    24.313540972     0.222731538
 C      -19.552780286    23.084001976    -2.565114019
 C       -5.750718457    18.921076866    -1.086152047
 C       -6.881715598    16.173474363    -1.957111003
 C       -2.636983996    13.718041039     0.040086680
 C       -4.865020590    12.779136259    -1.896133062
 C       -0.616777377    -0.919405629    -1.548212931
 C       -0.655058741    -0.907758084     1.539892009
 H        1.182858852     2.689751279    -0.595862509
 H        0.254711604     4.933226128    -0.586541073
 H       -3.587182048     3.385559242     0.583215399
 H       -2.699493578     1.121449081     0.590373695
 H       -3.382380596     5.690972551     0.288286257
 H       -0.602723191     6.765377886    -0.550655533
 H       -0.398676861     9.070817017    -0.845168657
 H       -1.285885838    11.334055871    -0.851469944
 H       -5.164392699     9.767700188     0.355859437
 H       -4.240684910     7.521416550     0.323159940
 H       -6.067568547    13.351707188     0.907144347
 H       -4.389216215    11.224357074     2.465891789
 H       -5.086621373    10.599150569     4.540326289
 H       -6.666449825    10.698045286     6.443121259
 H       -8.991749319    13.657622650     4.338012641
 H       -7.470805744    13.496258567     2.418466707
 H      -10.757274692    12.418077891     7.331098523
 H      -10.576805530    12.062298164     5.598107915
 H      -10.257931712    13.715427652     6.207534719
 H       -4.641129692    13.459654213     8.303184415
 H       -3.823513734    14.002210295     6.826970204
 H       -5.252642538    12.922506899     6.707541406
 H       -7.287186129    17.028532266     6.734804593
 H       -7.877689854    17.936931783     4.537244567
 H       -5.208780635    15.129927992     2.650350417
 H       -4.637188644    14.193764789     4.822513945
 H       -7.704584847    18.002779304     2.246899732
 H       -5.752313894    15.979382800     0.885782323
 H       -9.413743530    16.641776899     0.791810171
 H      -11.695502727    17.487607394     0.872454857
 H      -10.665478168    20.654838995    -1.853448360
 H       -8.375692616    19.855933088    -1.955534858
 H      -13.372133098    18.988532481     0.258908460
 H      -12.590534592    21.257299068    -1.697053084
 H      -15.299144424    19.589239322     0.412506692
 H      -17.586531996    20.396182314     0.522895096
 H      -16.549557976    23.594502404    -2.240058119
 H      -14.266571316    22.759710985    -2.308577764
 H       -8.734032758    12.566029661     8.744705168
 H       -7.132466839    12.432084363     7.986138923
 H       -8.256202187    14.709673877     6.690612821
 H       -8.900783802    14.853318275     8.319596593
 H       -6.886342089    16.046178315     8.537638711
 H       -6.386615186    14.453097556     9.136113772
 H        2.263340990    -1.029586777     0.042977191
 H        2.260894519     0.545490712     0.876079431
 H        2.275302792     0.476945656    -0.907379852
 H      -21.189658543    21.838919753    -0.001833764
 H      -19.873699688    21.258904951     1.049480164
 H      -20.138882278    20.507862673    -0.547851114
 H      -20.124497335    24.614608951     0.267396083
 C      -18.536374256    24.120878706     1.665698479
 C      -18.250660423    25.467929601    -0.422860579
 H      -18.839493556    23.869057928    -2.951678452
 C      -19.451173451    21.858975185    -3.491761739
 C      -20.977478621    23.659990728    -2.649437874
 H       -6.090576352    19.327050702    -2.082523429
 C       -5.774993564    20.073204458    -0.065913956
 C       -4.301870895    18.427210134    -1.247556488
 H       -5.817475976    15.796469268    -1.938188610
 C       -7.818161512    14.994751604    -1.636179203
 C       -7.180239271    16.677938121    -3.378734654
 H       -1.893753308    13.542685236    -0.790655795
 C       -3.107143400    15.179156632    -0.050424958
 C       -1.912824589    13.513619526     1.383305924
 H       -5.317228639    13.811614496    -1.812814772
 C       -3.887076106    12.782845490    -3.083085657
 C       -6.002702057    11.784032304    -2.186534406
 H       -0.129492250    -1.936514700    -1.514186157
 C       -2.142249052    -1.122570378    -1.575163499
 C       -0.187923547    -0.228344346    -2.855613958
 H       -1.779495876    -0.915158933     1.439916440
 C       -0.181877812    -2.368938231     1.638472504
 C       -0.303902156    -0.177327403     2.848728632
 H      -19.104221710    23.368832351     2.228363045
 H      -18.632771686    25.061458418     2.226874977
 H      -17.474117504    23.841206471     1.714852876
 H      -18.607736571    25.731204303    -1.426493027
 H      -17.172613084    25.264461737    -0.489991803
 H      -18.351958250    26.377927722     0.186563283
 H      -18.442610295    21.422468488    -3.525295536
 H      -19.695580638    22.145946143    -4.524472713
 H      -20.149672613    21.056305311    -3.220652680
 H      -21.108814315    24.582242655    -2.068847977
 H      -21.747565485    22.947765910    -2.324806056
 H      -21.217009092    23.916598039    -3.691730252
 H       -6.769165475    20.523478557     0.061798131
 H       -5.110519048    20.884422389    -0.394743930
 H       -5.420737866    19.768836295     0.930028633
 H       -4.187002813    17.665211778    -2.028983994
 H       -3.882285414    18.023329477    -0.315060785
 H       -3.650686483    19.264050202    -1.538536804
 H       -7.629913653    14.541370679    -0.652738601
 H       -7.683574663    14.192723190    -2.376870694
 H       -8.881275558    15.271489763    -1.676352729
 H       -6.490392933    17.461181625    -3.717683363
 H       -8.203467142    17.063804463    -3.490970930
 H       -7.085154362    15.852450065    -4.099049841
 H       -3.595769637    15.422536608    -1.002612727
 H       -2.245161196    15.857150376     0.032978651
 H       -3.790933913    15.457878825     0.764477394
 H       -1.485245056    12.508922153     1.502366410
 H       -2.561703320    13.701073661     2.251649117
 H       -1.071688685    14.215726507     1.469797616
 H       -3.094835606    13.537073613    -2.993535552
 H       -4.425805697    13.012947598    -4.013858250
 H       -3.404395884    11.808506881    -3.244410597
 H       -6.782280988    11.774462813    -1.412251273
 H       -5.646983088    10.751275610    -2.312181762
 H       -6.504711947    12.048750179    -3.128098908
 H       -2.520488746    -1.696764706    -0.719986378
 H       -2.429781221    -1.687327327    -2.474059391
 H       -2.698745937    -0.175650062    -1.619085355
 H        0.899532812    -0.117960515    -2.954825042
 H       -0.636540881     0.767942399    -2.978951123
 H       -0.516180486    -0.822173532    -3.720750079
 H       -0.459006011    -2.975666681     0.766745390
 H       -0.644361636    -2.854847553     2.510003724
 H        0.903579578    -2.459305463     1.777595613
 H       -0.661608706     0.861964636     2.875048998
 H        0.774395776    -0.160920736     3.055454724
 H       -0.774724744    -0.685694808     3.702197116

