187   

Si        0.000000000     0.000000000     0.000000000
 C        1.865115730     0.000000000     0.000000000
 C       -0.673688747     1.713378718     0.000000000
 C        0.062433084     2.765654344     0.555474897
 C       -0.445717744     4.064258013     0.556659022
 C       -1.701891685     4.340426512     0.009947025
 C       -2.440891217     3.284397336    -0.539246590
 C       -1.936413645     1.986600564    -0.541350740
 C       -2.273922158     5.682534724    -0.011151632
 C       -1.672896084     6.779325139     0.480643509
 C       -2.247190293     8.120660323     0.458321585
 C       -1.509929614     9.178457930     1.007714938
 C       -2.017118454    10.475019738     1.008974854
 C       -3.278467231    10.743919475     0.462212060
 C       -4.015566621     9.690481072    -0.088110003
 C       -3.502292978     8.393831961    -0.091975233
Si       -3.950652640    12.456829121     0.462868918
 C       -5.741474847    12.420923128     0.102316817
 C       -6.372608086    13.164958308    -0.815510036
 C       -7.812090822    13.104781937    -1.072601154
 C       -8.359922468    13.934662247    -2.061621465
 C       -9.715307834    13.916808989    -2.344247591
 C      -10.573336386    13.015325033    -1.674484527
 C      -10.022927892    12.177927519    -0.683908168
 C       -8.669662973    12.244767283    -0.380942573
 N      -11.940798594    13.009427054    -1.971178487
 C      -12.353155728    13.299265602    -3.353425556
 C      -12.789737693    12.040074951    -1.267823135
 C      -11.650975264    12.472700948    -4.447083698
 C      -12.160682535    11.027644755    -4.587577575
 N      -13.552755951    10.862942140    -5.053102234
 C      -14.532366931    10.891469845    -4.028067836
 C      -14.464664116     9.881429316    -3.046533332
 C      -15.389602009     9.849046188    -2.016781239
 C      -16.427859014    10.791533169    -1.949942753
 C      -16.508506906    11.770580809    -2.942244259
 C      -15.583135820    11.818895384    -3.980026730
 C      -13.864662535    11.631356427    -6.267505615
 C      -17.377068269    10.709014214    -0.838332214
 C      -18.407941277    11.546208930    -0.662276582
Si      -19.583127818    11.425258723     0.734875683
 C      -18.770088453    10.719665239     2.226336350
 C      -17.432655704    11.040102980     2.497157867
 C      -16.795705586    10.518532420     3.619612597
 C      -17.479853528     9.674461639     4.504667064
 C      -18.815368856     9.363273261     4.235786008
 C      -19.455693922     9.881220279     3.110229001
 C      -16.769253375     9.152687791     5.667426279
 C      -17.306103639     8.334170737     6.588046744
 C      -16.596013733     7.812073001     7.751007343
 C      -15.260769274     8.122244184     8.021249254
 C      -14.620828723     7.600392898     9.145472235
 C      -15.306028380     6.758923374    10.027394495
 C      -16.645588850     6.446311636     9.758361843
 C      -17.280266806     6.965093728     8.633303024
Si      -14.476785731     6.061436405    11.515851776
 C      -12.841071274     6.895426276    11.844672058
 C      -15.642480437     6.285065696    13.003963359
 C      -14.171017899     4.200227509    11.259222760
 C      -20.212103439    13.172406619     1.145574856
 C      -21.060574082    10.350638049     0.207617198
 C       -3.689877877    13.225939884     2.183871843
 C       -3.016624910    13.500570317    -0.823996436
 C       -0.644658193    -0.925721529    -1.533982747
 C       -0.630818860    -0.905427688     1.550800589
 H        1.051039026     2.611509633     0.996887956
 H        0.148848134     4.865885161     0.991071820
 H       -3.422196035     3.477221233    -0.968759647
 H       -2.560600132     1.203983220    -0.981262945
 H       -3.264581730     5.750039474    -0.470492629
 H       -0.682457650     6.713142536     0.940129649
 H       -0.529534115     8.986864034     1.439297907
 H       -1.397777180    11.259935699     1.451784560
 H       -5.004419758     9.844064076    -0.532529600
 H       -4.093551910     7.591241421    -0.528830714
 H       -6.298779955    11.713458523     0.738817769
 H       -5.849652113    13.884863567    -1.458777254
 H       -7.711918926    14.619657430    -2.609393931
 H      -10.116504690    14.603451412    -3.083270971
 H      -10.646815026    11.472763825    -0.144754902
 H       -8.271956926    11.596747060     0.402103975
 H      -13.850188859    12.193678565    -1.543009943
 H      -12.717014092    12.212908711    -0.178220169
 H      -12.533536796    10.989835333    -1.483488986
 H      -13.102618568    11.410402917    -7.035393568
 H      -13.906405777    12.721798566    -6.121172128
 H      -14.836889886    11.291403435    -6.667822690
 H      -13.687997910     9.121690225    -3.111841338
 H      -15.320076134     9.067950148    -1.258122959
 H      -17.309593752    12.510208050    -2.913805091
 H      -15.677275556    12.589137208    -4.739328105
 H      -17.156790160     9.885108763    -0.143689972
 H      -18.616775397    12.357830685    -1.374890812
 H      -16.849632337    11.697288757     1.842642658
 H      -15.755091562    10.773958836     3.811236150
 H      -19.369926089     8.710586499     4.907418027
 H      -20.501357848     9.602633872     2.953945999
 H      -15.728786115     9.479756470     5.752516313
 H      -18.346793815     8.007681413     6.503391796
 H      -14.706063531     8.777706622     7.352271165
 H      -13.575252534     7.878925354     9.304103109
 H      -17.231490572     5.794584691    10.412743165
 H      -18.320594425     6.710079157     8.440646706
 H      -13.457641315    13.175104830    -3.431234874
 H      -12.161707638    14.385105136    -3.533380892
 H      -11.746362993    13.002340758    -5.413498222
 H      -10.559431513    12.437289467    -4.243758319
 H      -11.518282823    10.486070458    -5.323513450
 H      -12.033777968    10.494038544    -3.619051293
 H        2.263163285    -1.029202113    -0.049099304
 H        2.277178098     0.473218148     0.908206412
 H        2.258589937     0.551165026    -0.873729474
 H      -12.369959302     6.500099935    12.762401185
 H      -12.971604494     7.984270118    11.981928514
 H      -12.129934871     6.742796772    11.013912544
 H      -16.583366516     5.716485291    12.747300749
 C      -15.083643435     5.703685831    14.314788182
 C      -16.030195263     7.757141566    13.232921895
 H      -13.601654739     3.857237108    12.171156200
 C      -15.462032362     3.367897237    11.163323351
 C      -13.305178836     3.910984206    10.019272142
 H      -20.706404446    13.555146337     0.206430873
 C      -21.255930518    13.186944117     2.275702438
 C      -19.066883946    14.134443210     1.509336420
 H      -21.763118331    10.331162682     1.090545220
 C      -21.829039579    10.923248520    -0.996719039
 C      -20.646873237     8.902116059    -0.108392687
 H       -2.573778530    13.250105895     2.347486789
 C       -4.218562045    14.667359686     2.285179807
 C       -4.315836762    12.380603632     3.307458713
 H       -3.546274276    14.496709925    -0.855699620
 C       -1.543911108    13.758177346    -0.458546275
 C       -3.073642018    12.880389000    -2.232272234
 H       -1.770135442    -0.926587048    -1.446419102
 C       -0.273724361    -0.218390297    -2.850025671
 C       -0.179739691    -2.391380536    -1.605953142
 H       -0.166268994    -1.932899206     1.518317261
 C       -0.187428235    -0.221948343     2.857191914
 C       -2.160815026    -1.072619838     1.574999920
 H      -14.848129325     4.633504478    14.250455807
 H      -15.827913784     5.806484036    15.117928139
 H      -14.182097085     6.224252746    14.664199500
 H      -16.489026721     8.227088916    12.351182624
 H      -15.180352801     8.382832103    13.536433444
 H      -16.772442603     7.830580497    14.040510062
 H      -16.104577607     3.455459398    12.048502243
 H      -15.213910774     2.300441557    11.069853132
 H      -16.066559008     3.618714836    10.280408622
 H      -12.325610251     4.405597862    10.045394216
 H      -13.797196718     4.197416424     9.078605207
 H      -13.102571512     2.832940098     9.944266669
 H      -22.151636722    12.594375619     2.049873071
 H      -21.604959318    14.214738045     2.452579214
 H      -20.853264593    12.832074929     3.235422478
 H      -18.304374407    14.223433000     0.723680808
 H      -18.553577692    13.854440409     2.440742770
 H      -19.462553568    15.147331177     1.670930246
 H      -22.231321109    11.928803424    -0.819532570
 H      -22.693934456    10.284510389    -1.227845591
 H      -21.223100504    10.960135938    -1.912772339
 H      -20.134824933     8.400598907     0.724498524
 H      -19.992694619     8.827755764    -0.989341422
 H      -21.535670501     8.295776238    -0.332888671
 H       -3.753397054    15.353423941     1.565743614
 H       -4.006435728    15.077355608     3.282862970
 H       -5.307971214    14.733588220     2.150909083
 H       -3.952269687    11.343486744     3.326108362
 H       -5.412881898    12.347523386     3.257782468
 H       -4.064419065    12.810966996     4.287241286
 H       -1.416207679    14.275691670     0.500665215
 H       -1.076273719    14.401833919    -1.217841826
 H       -0.943812714    12.837989601    -0.428425106
 H       -4.095778269    12.700926226    -2.592842845
 H       -2.531507513    11.925971305    -2.299035989
 H       -2.602141486    13.553906521    -2.961401957
 H       -0.617306346     0.824935906    -2.895192078
 H       -0.742318967    -0.733454889    -3.700600251
 H        0.806744363    -0.218238925    -3.046616736
 H       -0.473965110    -2.984466098    -0.730444955
 H        0.906984790    -2.490851313    -1.727677214
 H       -0.632444110    -2.885993770    -2.477636045
 H        0.902198251    -0.136883582     2.956981785
 H       -0.530036019    -0.806689691     3.722992588
 H       -0.613840992     0.784335491     2.978394565
 H       -2.549963971    -1.643739653     0.722591286
 H       -2.695191128    -0.112382967     1.608391031
 H       -2.464784836    -1.623509625     2.476914040

