187   

Si        0.000000000     0.000000000     0.000000000
 C        1.865148507     0.000000000     0.000000000
 C       -0.669622401     1.715228529     0.000000000
 C        0.073518245     2.768307569     0.544269129
 C       -0.432380563     4.067828648     0.544944402
 C       -1.692982240     4.343970397     0.008737302
 C       -2.439020872     3.287205959    -0.529488316
 C       -1.936803493     1.988560071    -0.531045560
 C       -2.262899089     5.686973027    -0.012468552
 C       -1.655448424     6.784624009     0.469408709
 C       -2.227958409     8.126609281     0.446811942
 C       -1.485757666     9.185929287     0.984405789
 C       -1.992253121    10.483913589     0.984524466
 C       -3.248201708    10.754261770     0.431217573
 C       -3.990888376     9.697373095    -0.109983170
 C       -3.486781232     8.398610725    -0.097248470
Si       -3.955185129    12.451587066     0.409893527
 C       -4.892230204    12.750507458    -1.134603447
 C       -4.579338180    12.154562256    -2.292801481
 C       -5.293270372    12.356930280    -3.555176109
 C       -4.845037427    11.659414867    -4.687322301
 C       -5.478830489    11.808702069    -5.910444940
 C       -6.586118773    12.666805293    -6.024754319
 C       -7.031508243    13.376158746    -4.904205342
 C       -6.377046110    13.228731462    -3.684338210
 N       -7.177392598    12.758730535    -7.326151297
 C       -8.029262406    11.585992032    -7.631326741
 C       -7.844427731    14.042063244    -7.608131583
 C       -9.354828917    11.533827600    -6.847021107
 C       -9.690555999    10.134763858    -6.297773627
 N       -9.058445800     9.782963352    -5.011413050
 C       -9.207462606    10.688070709    -3.946778886
 C      -10.347683217    11.517866526    -3.875197369
 C      -10.499998853    12.411988419    -2.828087836
 C       -9.566180537    12.475562874    -1.785100818
 C       -8.459477541    11.623303718    -1.834117937
 C       -8.282219765    10.733947553    -2.884968403
 C       -7.738637546     9.146417338    -5.155430689
 C       -9.783649181    13.441257882    -0.708471266
 C       -8.968461673    13.601224214     0.342605917
Si       -9.260836120    14.815688452     1.677220154
 C      -11.051142061    15.134154696     1.943124577
 C      -11.975687865    14.101113306     1.749585893
 C      -13.337489111    14.323226232     1.946285338
 C      -13.805281477    15.576122625     2.353193232
 C      -12.877374952    16.606188270     2.554466490
 C      -11.516242861    16.388795582     2.353901585
 C      -15.221066402    15.854056622     2.571249936
 C      -16.209428265    14.957323082     2.413775302
 C      -17.625407425    15.234274453     2.631572098
 C      -18.095640473    16.487102907     3.033503079
 C      -19.458768130    16.707935157     3.230171703
 C      -20.383309849    15.679857525     3.021539732
 C      -19.914306923    14.422460175     2.617431949
 C      -18.552741277    14.203440495     2.427885982
Si      -22.185535598    15.955008535     3.276677075
 C      -22.588188802    17.770235819     3.426798237
 C      -23.119820962    15.193766468     1.803188040
 C      -22.743070535    15.071081304     4.867547767
 C       -8.523668276    14.121342805     3.288023156
 C       -8.344167655    16.421020558     1.226621474
 C       -5.163971347    12.602530977     1.871815053
 C       -2.604804968    13.776505825     0.573297528
 C       -0.647384045    -0.923780057    -1.533736474
 C       -0.631106944    -0.904568731     1.550949820
 H        1.065871581     2.614437993     0.977383261
 H        0.167458696     4.870079788     0.970974994
 H       -3.424034453     3.479834384    -0.950346785
 H       -2.566264034     1.205134845    -0.961993642
 H       -3.258015370     5.753959973    -0.461991533
 H       -0.660875582     6.718388227     0.920040625
 H       -0.502926817     8.995774388     1.411551654
 H       -1.371232268    11.268175663     1.425672001
 H       -4.980105132     9.850766001    -0.556247580
 H       -4.084429284     7.592836172    -0.519644264
 H       -5.722037908    13.469243255    -1.059924718
 H       -3.747279370    11.440194620    -2.385015458
 H       -3.985240320    10.993656541    -4.607696803
 H       -5.117817717    11.282937713    -6.792486687
 H       -7.889062934    14.040003492    -4.973829300
 H       -6.737596045    13.788384604    -2.819200384
 H       -8.072829663    14.085329491    -8.687128906
 H       -7.145618518    14.867952209    -7.386304446
 H       -8.776793848    14.213229625    -7.049251995
 H       -7.717686131     8.503085278    -6.049092367
 H       -7.559923549     8.489862626    -4.283725952
 H       -6.908826283     9.872574588    -5.227370800
 H      -11.114617709    11.463945456    -4.641459323
 H      -11.374927396    13.063475839    -2.810207442
 H       -7.713783951    11.650254619    -1.036501513
 H       -7.403433760    10.095547176    -2.886048749
 H      -10.702885691    14.030411624    -0.839935832
 H       -8.048515295    13.006524905     0.451870282
 H      -11.667397307    13.097678682     1.435529795
 H      -14.037372042    13.505784195     1.782145534
 H      -13.220590264    17.588923568     2.871768309
 H      -10.840033628    17.230396252     2.525907672
 H      -15.443381934    16.878364097     2.884231931
 H      -15.986690158    13.932695981     2.101433459
 H      -17.397087540    17.305362738     3.198694971
 H      -19.766041993    17.708666845     3.546196243
 H      -20.590454806    13.581636630     2.438680785
 H      -18.207550911    13.219484113     2.115912483
 H       -8.228527253    11.602520757    -8.725660179
 H       -7.425383945    10.671051668    -7.441975573
 H       -9.317697704    12.259155500    -6.006603717
 H      -10.183568071    11.881299549    -7.490099558
 H      -10.794832735    10.050221504    -6.148839029
 H       -9.434074373     9.354040631    -7.047188345
 H        2.263324278    -1.029355606    -0.046157749
 H        2.277288251     0.475573801     0.906951718
 H        2.258720579     0.548548787    -0.875307925
 H      -23.675691883    17.928817467     3.538583065
 H      -22.263262149    18.323472526     2.526899810
 H      -22.093897039    18.228369580     4.301349638
 H      -22.864359542    14.094134329     1.810068031
 C      -24.649521151    15.322422355     1.913159778
 C      -22.663271436    15.774107194     0.452377030
 H      -23.834075413    15.330341537     4.993369708
 C      -22.623369132    13.538221343     4.796892615
 C      -21.987743282    15.567667634     6.114066368
 H       -7.444172321    13.878900773     3.060733218
 C       -8.549087326    15.127636695     4.450965040
 C       -9.222699675    12.824423845     3.733321976
 H       -8.519713643    17.133039837     2.083356537
 C       -6.824351845    16.231109889     1.070632020
 C       -8.899462526    17.066749122    -0.055582148
 H       -5.733280546    13.561871714     1.698974494
 C       -6.169885955    11.438648810     1.913862587
 C       -4.467303680    12.703180867     3.239374898
 H       -2.080478313    13.571865387     1.551165878
 C       -1.561843710    13.692558871    -0.555410705
 C       -3.167079149    15.208763345     0.626590236
 H       -1.772773665    -0.923135492    -1.445088598
 C       -0.276824152    -0.216119262    -2.849771359
 C       -0.184403078    -2.389955947    -1.606969529
 H       -0.167701513    -1.932636887     1.518318557
 C       -0.186279771    -0.221612477     2.857112472
 C       -2.161256908    -1.070330173     1.575859610
 H      -25.060340039    14.862828338     2.821380104
 H      -25.130640048    14.811853533     1.066220070
 H      -24.995489920    16.363983082     1.879361700
 H      -21.582945585    15.668241854     0.277634718
 H      -22.914671544    16.836439782     0.334484643
 H      -23.160723368    15.245062586    -0.372891918
 H      -23.208042459    13.092438148     3.982370629
 H      -23.002043671    13.089072771     5.726696937
 H      -21.584088866    13.195523166     4.694070373
 H      -22.091451832    16.646626760     6.286481539
 H      -20.912968774    15.337620110     6.081801544
 H      -22.380818122    15.073775737     7.014275179
 H       -7.980904033    16.043935923     4.246487581
 H       -8.096215517    14.678839644     5.346948070
 H       -9.567703815    15.422942948     4.740437013
 H       -9.214829153    12.036850709     2.966910088
 H      -10.269816304    12.984992834     4.028986186
 H       -8.717122277    12.405901290     4.614972262
 H       -6.339535412    15.847987326     1.977884720
 H       -6.346101345    17.197022046     0.853281659
 H       -6.561087948    15.564487999     0.236728966
 H       -9.972692657    17.294967671     0.000303013
 H       -8.740663300    16.446202885    -0.949951909
 H       -8.393457708    18.022949997    -0.247970096
 H       -6.747564359    11.319589194     0.987115139
 H       -6.903898040    11.601677565     2.717533822
 H       -5.693783463    10.471424371     2.130904607
 H       -3.794482384    13.565657193     3.325415080
 H       -3.890273395    11.803391394     3.494137089
 H       -5.217401097    12.819027507     4.035762085
 H       -1.069883672    12.712816584    -0.626347379
 H       -0.761359728    14.426467202    -0.385960451
 H       -1.984183948    13.920879974    -1.545059523
 H       -3.872324137    15.370924529     1.452211169
 H       -3.666831713    15.505482692    -0.306525258
 H       -2.348936373    15.927752448     0.776590056
 H       -0.618732183     0.827717679    -2.893869017
 H       -0.747313910    -0.729976058    -3.700052231
 H        0.803420692    -0.217744269    -3.047658177
 H       -0.481642742    -2.983869691    -0.732992804
 H        0.902428922    -2.491101041    -1.726387346
 H       -0.635916996    -2.882569857    -2.480432538
 H        0.903607277    -0.140929202     2.957821825
 H       -0.532030644    -0.804358199     3.723085893
 H       -0.608763389     0.786417430     2.977322358
 H       -2.551184975    -1.642300481     0.724390805
 H       -2.694937020    -0.109716903     1.608471117
 H       -2.465247241    -1.619909946     2.478646498

