187   

Si        0.000000000     0.000000000     0.000000000
 C        1.864926801     0.000000000     0.000000000
 C       -0.682970102     1.709503457     0.000000000
 C        0.082992204     2.789706232    -0.450311250
 C       -0.441816820     4.082007545    -0.447108577
 C       -1.743412031     4.323234121     0.000222807
 C       -2.511670989     3.239079868     0.445280481
 C       -1.990934274     1.948082583     0.442606984
 C       -2.335875506     5.656364208     0.022482906
 C       -1.714231167     6.779616268    -0.374764425
 C       -2.312772881     8.110378782    -0.349897368
 C       -3.616549065     8.339880760     0.099981655
 C       -4.151220895     9.627007305     0.107612109
 C       -3.388554711    10.714993732    -0.331294521
 C       -2.083160553    10.489422076    -0.784155510
 C       -1.554873231     9.200585362    -0.796276660
Si       -4.095652744    12.412291126    -0.320483947
 C       -2.753342964    13.647070900    -0.451983821
 C       -2.716078551    14.668538960    -1.316920928
 C       -1.622562142    15.640065059    -1.394043036
 C       -1.702797188    16.667631307    -2.347091521
 C       -0.696815823    17.612012480    -2.462208461
 C        0.446574557    17.532834281    -1.640772092
 C        0.529094937    16.510265524    -0.684691547
 C       -0.507145976    15.591003122    -0.555136849
 N        1.436628414    18.532998798    -1.812510388
 C        2.059108502    18.572528365    -3.151423262
 C        2.393619466    18.692158472    -0.707556536
 C        3.300849599    17.687558704    -3.357603407
 C        3.037440836    16.173378021    -3.257485654
 N        2.370668603    15.560859127    -4.417149214
 C        2.890939508    15.819582021    -5.690799686
 C        4.287322391    15.953904845    -5.861304965
 C        4.818528336    16.209915805    -7.114464140
 C        3.998255084    16.292769683    -8.248789180
 C        2.620138703    16.128695531    -8.082359322
 C        2.067199205    15.889602167    -6.831739339
 C        0.913846125    15.430642090    -4.289682455
 C        4.610636985    16.565542607    -9.549919528
 C        3.923296873    16.665312646   -10.695190043
Si        4.626816708    17.003117847   -12.346820499
 C        3.990602588    15.764107584   -13.548575845
 C        3.594427219    14.498661621   -13.101916506
 C        3.110526851    13.550619010   -14.002271052
 C        3.023762653    13.840432158   -15.366883191
 C        3.428155229    15.105968062   -15.812080713
 C        3.907181037    16.057446038   -14.914995680
 C        2.523967630    12.879553592   -16.344709513
 C        2.105772876    11.636648323   -16.051061206
 C        1.605904453    10.675332709   -17.028281480
 C        1.513585681    10.964903443   -18.392037336
 C        1.029459149    10.015432638   -19.291799041
 C        0.634514833     8.750037557   -18.846773389
 C        0.728036938     8.456174465   -17.479557787
 C        1.205597418     9.408112896   -16.583162341
Si       -0.006617060     7.485113141   -20.020235667
 C        0.283875175     7.983416568   -21.794351904
 C        0.866358120     5.834679128   -19.649062771
 C       -1.876985509     7.255392744   -19.750852660
 C        4.097438396    18.750872549   -12.882684035
 C        6.526407917    16.922224992   -12.325479911
 C       -5.326082523    12.585655014    -1.760106115
 C       -5.022173091    12.697610773     1.316469172
 C       -0.623619508    -0.912256336    -1.549803831
 C       -0.647662885    -0.919739613     1.536364565
 H        1.107651523     2.663191834    -0.810722978
 H        0.175963953     4.906031258    -0.799525174
 H       -3.528394704     3.404746629     0.796591178
 H       -2.638592382     1.142368024     0.799385695
 H       -3.362936497     5.692705611     0.398032255
 H       -0.687756177     6.745476959    -0.751084438
 H       -4.227499940     7.509751962     0.449648113
 H       -5.176373319     9.744404585     0.469847128
 H       -1.444606270    11.303112455    -1.143058409
 H       -0.539653022     9.042502233    -1.155732231
 H       -1.941273606    13.488924316     0.277506054
 H       -3.512592459    14.857494036    -2.048657856
 H       -2.575929023    16.734344028    -2.996989984
 H       -0.788951806    18.428855664    -3.175679893
 H        1.393835925    16.430550975    -0.032740843
 H       -0.430881276    14.812521667     0.205622167
 H        2.998345836    19.598312203    -0.888123993
 H        3.075823933    17.839608221    -0.566158075
 H        1.834826780    18.856462674     0.231543060
 H        0.643622061    15.172161707    -3.248760683
 H        0.565835153    14.594942113    -4.924446735
 H        0.362216526    16.344884281    -4.563840675
 H        4.951593142    15.853622735    -5.008448378
 H        5.897015729    16.331592022    -7.219681283
 H        1.958693833    16.187339115    -8.948685677
 H        0.991619177    15.773546813    -6.747337627
 H        5.701264556    16.679268788    -9.499229453
 H        2.826216814    16.550981878   -10.709648391
 H        3.644137026    14.214360673   -12.045241893
 H        2.801833105    12.575236053   -13.630448816
 H        3.368550077    15.351244490   -16.870533964
 H        4.207227298    17.027802589   -15.319281831
 H        2.507728322    13.243009813   -17.376313832
 H        2.122540352    11.273139002   -15.019236797
 H        1.819069158    11.940744401   -18.765048877
 H        0.978570834    10.301070166   -20.346080940
 H        0.435308779     7.483361126   -17.074378489
 H        1.269726922     9.161730639   -15.524910796
 H        1.294251286    18.320252897    -3.919678656
 H        2.339555458    19.638393846    -3.333720459
 H        3.733080003    17.925351019    -4.353082817
 H        4.086749596    17.963245415    -2.629577868
 H        4.009992274    15.640948416    -3.119140260
 H        2.441725693    15.950636401    -2.342816688
 H        2.262521976    -1.029654863     0.045301197
 H        2.259722314     0.547701854     0.875232406
 H        2.276335179     0.475569017    -0.907410018
 H       -0.061233294     7.197693312   -22.489851889
 H        1.359086343     8.149113687   -21.988722705
 H       -0.252789217     8.913541521   -22.050944191
 H        0.610527841     5.583735939   -18.578529987
 C        0.383565700     4.671719572   -20.533854381
 C        2.398448657     5.942467803   -19.753683309
 H       -2.209549043     6.522004014   -20.541317304
 C       -2.237179605     6.667338255   -18.374897094
 C       -2.666344524     8.562333008   -19.950012498
 H        4.569521614    18.924005870   -13.892699994
 C        2.572166494    18.882101411   -13.042215811
 C        4.598475405    19.849883987   -11.928980647
 H        6.858532964    17.628473548   -11.510515253
 C        7.050836982    15.515026101   -11.985652973
 C        7.168955147    17.382955666   -13.646207234
 H       -5.646353000    13.667824108    -1.765121805
 C       -4.682056728    12.267777872    -3.122155661
 C       -6.587161109    11.718775022    -1.596867156
 H       -5.851682475    11.932755995     1.340296989
 C       -4.128227666    12.466007670     2.547658001
 C       -5.659215001    14.094759406     1.412637340
 H       -0.147972686    -1.934745483    -1.516673149
 C       -2.151583470    -1.096688784    -1.574954773
 C       -0.187353247    -0.224772227    -2.856478784
 H       -1.772303455    -0.931985711     1.439886036
 C       -0.168725900    -2.379871398     1.624260880
 C       -0.294774338    -0.196818028     2.848893469
 H       -0.695431514     4.485521796   -20.456604585
 H        0.878745470     3.738084387   -20.229393391
 H        0.623385808     4.813264760   -21.596003702
 H        2.824045339     6.719913996   -19.102941972
 H        2.746175601     6.140280055   -20.776238652
 H        2.864968138     4.995778594   -19.445919530
 H       -1.774789117     5.690872217   -18.183024708
 H       -3.323606311     6.510016899   -18.307080419
 H       -1.973460855     7.335920847   -17.543258350
 H       -2.531452749     9.006649308   -20.944519383
 H       -2.414206247     9.331090883   -19.205283188
 H       -3.743818175     8.371881237   -19.842483009
 H        2.142459870    18.150904476   -13.741342949
 H        2.318869167    19.874221804   -13.441825511
 H        2.032922583    18.786718764   -12.089718916
 H        5.691499283    19.878018029   -11.833452025
 H        4.178218558    19.761871209   -10.916831191
 H        4.296692035    20.838758619   -12.302352977
 H        6.670118327    15.121665972   -11.033131713
 H        8.146143009    15.531126072   -11.897929180
 H        6.815251171    14.774224745   -12.763509250
 H        6.928948265    18.421010698   -13.908785403
 H        6.894505395    16.747783814   -14.500329106
 H        8.264740310    17.332474641   -13.568460456
 H       -3.792435232    12.873550893    -3.341819975
 H       -5.397727336    12.463594793    -3.932983676
 H       -4.390541689    11.211614491    -3.218373540
 H       -7.160081163    11.948066646    -0.689416205
 H       -6.368997333    10.641456215    -1.595341669
 H       -7.271218814    11.889153095    -2.441173923
 H       -3.668780142    11.467616039     2.570780523
 H       -4.725225771    12.549240905     3.467145765
 H       -3.321083559    13.205814311     2.636839802
 H       -6.379267377    14.301541274     0.610428976
 H       -4.916523102    14.905427949     1.410162621
 H       -6.215140806    14.190826538     2.356388293
 H       -2.534894034    -1.671967472    -0.722738675
 H       -2.448154505    -1.651608463    -2.476946307
 H       -2.696693831    -0.142680335    -1.610188326
 H        0.901283201    -0.126703168    -2.955710581
 H       -0.625179681     0.776419753    -2.978887459
 H       -0.522307076    -0.814158857    -3.722112472
 H       -0.446329810    -2.982077993     0.749563457
 H       -0.626667615    -2.873057329     2.494058616
 H        0.917491613    -2.467096930     1.759448864
 H       -0.653720143     0.841780027     2.882893282
 H        0.784176491    -0.179890362     3.052672186
 H       -0.762087865    -0.711485681     3.700479017

