187   

Si        0.000000000     0.000000000     0.000000000
 C        1.865243890     0.000000000     0.000000000
 C       -0.674212902     1.713049012     0.000000000
 C        0.116877286     2.797059299     0.393965229
 C       -0.401525818     4.091866133     0.391118285
 C       -1.721531568     4.332203496     0.000936329
 C       -2.514437578     3.244435511    -0.388555360
 C       -1.999728038     1.950952245    -0.387452888
 C       -2.306530009     5.668821014    -0.017876612
 C       -1.657975797     6.793417114     0.329513052
 C       -2.244337906     8.129517576     0.310201141
 C       -1.452402302     9.218492629     0.698781011
 C       -1.968831020    10.511527808     0.696340761
 C       -3.294975941    10.744920088     0.311184998
 C       -4.087372223     9.659998199    -0.077597710
 C       -3.564618021     8.367245989    -0.081356401
Si       -3.983513273    12.451142276     0.305754287
 C       -5.808912139    12.376067629     0.272312458
 C       -6.604153540    13.045495344    -0.572196369
 C       -8.065159958    12.958403811    -0.567043574
 C       -8.790946295    13.709334282    -1.503241715
 C      -10.174410084    13.664134814    -1.542416094
 C      -10.890280026    12.882330123    -0.609229714
 C      -10.162586669    12.127412969     0.330935121
 C       -8.773777731    12.157786682     0.332156743
 N      -12.291053605    12.846283291    -0.661111614
 C      -12.998971909    14.054517986    -1.114364281
 C      -12.989227501    12.079605880     0.380091876
 C      -12.661385262    15.340133672    -0.340474205
 C      -13.309575586    15.350669105     1.054575516
 N      -12.849037681    16.436670433     1.929542909
 C      -11.553075375    16.352570527     2.478828994
 C      -10.720839787    15.232384530     2.297840624
 C       -9.452124905    15.200613511     2.860888606
 C       -8.990867569    16.248922427     3.666641191
 C       -9.832446833    17.348207578     3.870314329
 C      -11.091675210    17.406510187     3.293407120
 C      -13.259403680    17.773129809     1.461201232
 C       -7.645734352    16.176464122     4.241614536
 C       -7.122597820    17.131014008     5.022536493
Si       -5.462681994    17.130552733     5.782508500
 C       -5.596147403    17.511452823     7.577398510
 C       -6.814722853    17.355471119     8.245868259
 C       -6.916870873    17.643924073     9.606311465
 C       -5.804314823    18.083091479    10.329144075
 C       -4.583173691    18.232406440     9.657885962
 C       -4.478256873    17.949568913     8.298666418
 C       -5.865086989    18.396309808    11.753065769
 C       -6.969979764    18.296027453    12.511414378
 C       -7.032124741    18.608895026    13.935297563
 C       -5.922360224    19.052221245    14.659318778
 C       -6.026998007    19.339970693    16.020165768
 C       -7.245200259    19.183406380    16.688599388
 C       -8.359715998    18.738154539    15.964863434
 C       -8.253576293    18.457525547    14.605582617
Si       -7.400361775    19.558691970    18.484081375
 C       -5.730303227    19.772476801    19.287442828
 C       -8.398787418    21.163045074    18.713844260
 C       -8.349774516    18.130586776    19.310328382
 C       -4.617738381    15.442819708     5.567007767
 C       -4.415929889    18.476944981     4.936186933
 C       -3.425191047    13.353761824     1.882483016
 C       -3.309653377    13.390752970    -1.204489071
 C       -0.651786518    -0.910371449    -1.539890872
 C       -0.624277032    -0.915475932     1.547423122
 H        1.156532594     2.671895529     0.708920566
 H        0.236362059     4.918757977     0.697976912
 H       -3.545404923     3.409515737    -0.695958668
 H       -2.665862320     1.142478184    -0.701293809
 H       -3.349600760     5.706715968    -0.345745570
 H       -0.615058736     6.755968872     0.657405910
 H       -0.421349773     9.054725737     1.005952171
 H       -1.303658028    11.321716070     1.007331162
 H       -5.128681977     9.784986198    -0.392316623
 H       -4.199629380     7.539619221    -0.392097565
 H       -6.231564830    11.711450154     1.044139160
 H       -6.215478924    13.721783072    -1.344888991
 H       -8.259734214    14.337243920    -2.219627712
 H      -10.704565527    14.234305533    -2.299109120
 H      -10.671857106    11.509476259     1.062926665
 H       -8.234407978    11.553756007     1.064008578
 H      -14.079839047    12.132471525     0.228434011
 H      -12.763609061    12.415557766     1.406811507
 H      -12.705786376    11.013528599     0.289567329
 H      -14.218775609    17.715214777     0.922767673
 H      -12.515632825    18.245898707     0.799404331
 H      -13.421908139    18.428879059     2.335779880
 H      -11.040971755    14.389361942     1.690177576
 H       -8.811554171    14.337350176     2.670236523
 H       -9.500904125    18.178773835     4.495663244
 H      -11.723985396    18.269037569     3.480810881
 H       -7.105543756    15.259671234     3.972509034
 H       -7.697074064    18.042481770     5.262180089
 H       -7.718044759    17.008954436     7.732850185
 H       -7.877183852    17.520078063    10.103650443
 H       -3.705005217    18.573112283    10.202823337
 H       -3.501195613    18.085788209     7.827284584
 H       -4.919510258    18.732122316    12.188657768
 H       -7.915431594    17.959695129    12.075651913
 H       -4.961707457    19.178220821    14.163381166
 H       -5.124336168    19.683949014    16.532632929
 H       -9.337179754    18.596718796    16.434671452
 H       -9.130608119    18.114287618    14.060107853
 H      -12.756951745    14.196733922    -2.195763215
 H      -14.094577628    13.862195372    -1.079673808
 H      -11.560856413    15.454149759    -0.248116687
 H      -12.994337973    16.220664919    -0.919438196
 H      -14.416774327    15.438046309     0.962369797
 H      -13.128945927    14.385936251     1.581978879
 H        2.263323622    -1.029203116    -0.050478997
 H        2.276192527     0.470937039     0.910019749
 H        2.259683975     0.551883630    -0.872686676
 H       -5.831094499    19.957891199    20.371756173
 H       -5.174021036    20.622571682    18.855176008
 H       -5.111706851    18.865247009    19.162324086
 H       -8.398901762    21.365185818    19.823914010
 C       -7.748246531    22.367813667    18.009349825
 C       -9.862176285    21.052562944    18.250000244
 H       -9.357744203    18.095491435    18.803210473
 C       -7.667670286    16.767407370    19.095008890
 C       -8.587010562    18.340716148    20.816345013
 H       -4.695584296    15.197332435     4.466360081
 C       -3.127563910    15.446229158     5.950434893
 C       -5.331215982    14.328144679     6.353510824
 H       -3.373573085    18.370222367     5.353909759
 C       -4.338312155    18.314397428     3.408483922
 C       -4.914225029    19.896885510     5.261336665
 H       -2.297730405    13.297991297     1.883468298
 C       -3.826724721    14.838002542     1.906262697
 C       -3.934531055    12.670372373     3.163516527
 H       -3.845901080    14.383678377    -1.217167753
 C       -1.797657523    13.668320504    -1.127293842
 C       -3.610855926    12.664791644    -2.528254193
 H       -1.776490864    -0.917154997    -1.443250783
 C       -0.296060494    -0.183137488    -2.849250639
 C       -0.179766985    -2.372269584    -1.634249363
 H       -0.148538433    -1.937871049     1.512030803
 C       -0.187996961    -0.230903197     2.855696747
 C       -2.152167976    -1.100737094     1.572942132
 H       -6.724208631    22.570914034    18.348176133
 H       -8.325976651    23.280670444    18.213629389
 H       -7.721350630    22.259539999    16.915431687
 H      -10.424482076    20.262882560    18.764072684
 H       -9.954765457    20.883943479    17.167817667
 H      -10.393941750    21.992340317    18.458994698
 H       -7.514905104    16.521660420    18.034233402
 H       -8.292618931    15.963336690    19.509028834
 H       -6.693497659    16.690594529    19.595771162
 H       -9.137310231    19.262418406    21.045452159
 H       -7.656386947    18.352989856    21.399056696
 H       -9.190542291    17.514538128    21.219716775
 H       -2.523982422    16.133230240     5.343995544
 H       -2.696627129    14.445410352     5.799796953
 H       -2.957436894    15.691886118     7.008132618
 H       -6.398699340    14.233319827     6.110160249
 H       -5.254090173    14.458956142     7.442480851
 H       -4.875313324    13.353816228     6.127420802
 H       -3.908030753    17.354832211     3.093916844
 H       -3.696167384    19.095703318     2.978113471
 H       -5.317341044    18.415989245     2.917891211
 H       -4.953496797    20.109297247     6.339109529
 H       -5.909162579    20.107376412     4.845825179
 H       -4.234542729    20.643496442     4.826844621
 H       -3.477331591    15.402029333     1.031937056
 H       -3.379025356    15.328604782     2.784244876
 H       -4.914619162    14.984791784     1.980432786
 H       -3.657123121    11.609526209     3.232130809
 H       -5.025298186    12.737684378     3.280060858
 H       -3.497323068    13.157196277     4.048409245
 H       -1.507971578    14.266761593    -0.254204050
 H       -1.475452763    14.238952861    -2.010560940
 H       -1.193774976    12.750012863    -1.122198823
 H       -4.679289160    12.464419697    -2.687121485
 H       -3.081544525    11.704937963    -2.617359976
 H       -3.281383417    13.277625097    -3.378973723
 H       -0.651906932     0.856754678    -2.878621451
 H       -0.765034650    -0.692347269    -3.703166572
 H        0.782883420    -0.168737336    -3.052881659
 H       -0.463545544    -2.977934579    -0.763925428
 H        0.906453433    -2.464226158    -1.766123246
 H       -0.636922908    -2.858262941    -2.508484210
 H        0.900693199    -0.134301131     2.955728104
 H       -0.524335624    -0.821464011     3.719995805
 H       -0.624422852     0.770721041     2.979619134
 H       -2.536185800    -1.670144128     0.717139512
 H       -2.697426763    -0.147145309     1.615773102
 H       -2.447460456    -1.662160879     2.471335826

