187   

Si        0.000000000     0.000000000     0.000000000
 C        1.865100577     0.000000000     0.000000000
 C       -0.684531545     1.708784122     0.000000000
 C        0.116453912     2.810435588     0.316592054
 C       -0.416334925     4.099637810     0.312427922
 C       -1.760331700     4.316038238    -0.002021724
 C       -2.562758491     3.210579914    -0.315200831
 C       -2.033684431     1.923175414    -0.313557859
 C       -2.362506319     5.644843252    -0.019573180
 C       -1.710804425     6.786932102     0.257759177
 C       -2.319697837     8.112995756     0.238252961
 C       -1.526518558     9.225334284     0.547988297
 C       -2.065658118    10.509786506     0.541760343
 C       -3.410604607    10.712792844     0.211935489
 C       -4.204956207     9.602821986    -0.099267733
 C       -3.665256844     8.318040992    -0.080805036
Si       -4.157232491    12.393258188     0.193015678
 C       -5.424438020    12.551467845    -1.117378813
 C       -5.392551856    11.871415560    -2.271069069
 C       -6.401032618    11.990431879    -3.326017546
 C       -6.249503017    11.219435758    -4.489395742
 C       -7.173680180    11.293424210    -5.517727554
 C       -8.268920488    12.176354550    -5.423770384
 C       -8.426526286    12.945269233    -4.261526433
 C       -7.510247780    12.832128524    -3.220653146
 N       -9.176646802    12.201412035    -6.512388690
 C       -8.596213995    12.619431933    -7.804365578
 C      -10.497908677    12.786203870    -6.239405442
 C       -8.580770757    14.131210247    -8.090831315
 C       -7.661906305    14.950373087    -7.165125803
 N       -6.221129032    14.857097534    -7.450129685
 C       -5.798230535    15.066365131    -8.768956801
 C       -6.457902642    16.026914011    -9.568346878
 C       -6.054188348    16.247866983   -10.874355396
 C       -4.955893227    15.567328933   -11.420255491
 C       -4.286033392    14.639607491   -10.618050730
 C       -4.688651315    14.390002680    -9.312838681
 C       -5.503895015    13.851566529    -6.656161177
 C       -4.572893014    15.839485295   -12.805990674
 C       -3.544495895    15.251300663   -13.432215313
Si       -3.062090499    15.587742756   -15.162708562
 C       -4.502996580    16.062921041   -16.203232914
 C       -5.765571579    15.523959146   -15.929481771
 C       -6.868677401    15.872336759   -16.706957256
 C       -6.733714172    16.753426073   -17.783735006
 C       -5.467478187    17.284174870   -18.062065600
 C       -4.364264455    16.942535930   -17.283437692
 C       -7.859773708    17.146136724   -18.624436203
 C       -9.121392154    16.711448005   -18.465575318
 C      -10.247660633    17.103967180   -19.306099833
 C      -10.115239717    17.988999262   -20.379157546
 C      -11.219343736    18.337203947   -21.157092969
 C      -12.483543915    17.810966853   -20.873953804
 C      -12.619195736    16.923240147   -19.797929126
 C      -11.514368438    16.573350588   -19.026743301
Si      -13.950624574    18.260382323   -21.890805417
 C      -13.595802914    19.715666188   -23.002691964
 C      -14.452816506    16.775738772   -22.971103191
 C      -15.390656295    18.667395020   -20.714217421
 C       -1.757147723    16.972455739   -15.178449476
 C       -2.284756337    14.008141222   -15.884078116
 C       -4.983863307    12.718471333     1.874401328
 C       -2.817886446    13.712220902    -0.098482319
 C       -0.653120262    -0.906817683    -1.541410840
 C       -0.614333772    -0.922995847     1.547279705
 H        1.174615959     2.703564115     0.570724679
 H        0.228971876     4.940743394     0.559160631
 H       -3.612481083     3.357145514    -0.562796465
 H       -2.708111657     1.100151187    -0.566535363
 H       -3.424484779     5.660998478    -0.283117513
 H       -0.649607480     6.773226877     0.521960363
 H       -0.476769348     9.087586919     0.799799708
 H       -1.399722425    11.337993053     0.798626698
 H       -5.263704866     9.701909628    -0.362554611
 H       -4.304839563     7.470872689    -0.322178030
 H       -6.226400578    13.272453432    -0.898795982
 H       -4.596728101    11.152468756    -2.514302742
 H       -5.400775862    10.539715573    -4.579481859
 H       -7.069533722    10.660258842    -6.396854280
 H       -9.264913488    13.627371246    -4.158702676
 H       -7.659295711    13.426808885    -2.318568290
 H      -11.158014067    12.593148481    -7.103264382
 H      -10.487172325    13.869687347    -6.043551103
 H      -10.945356666    12.274758451    -5.368163503
 H       -5.898329931    13.831465260    -5.622984234
 H       -4.438268568    14.137245456    -6.583787277
 H       -5.575592088    12.830307607    -7.064509386
 H       -7.285471765    16.598674318    -9.159506110
 H       -6.591305965    16.977758066   -11.481755806
 H       -3.428851037    14.096160771   -11.018300572
 H       -4.144496126    13.656521094    -8.727111383
 H       -5.221890377    16.579070513   -13.296488193
 H       -2.903210158    14.522412595   -12.913935425
 H       -5.930483224    14.823827484   -15.103221704
 H       -7.841452357    15.446315201   -16.468661189
 H       -5.340648378    17.971210844   -18.896363377
 H       -3.401888220    17.388509025   -17.548585427
 H       -7.609198491    17.845229585   -19.427714573
 H       -9.371877279    16.011541860   -17.663016123
 H       -9.142871723    18.415729921   -20.618335855
 H      -11.052986528    19.033154215   -21.984020124
 H      -13.582700237    16.480879461   -19.529478839
 H      -11.639130380    15.880672759   -18.196655061
 H       -7.562649030    12.215452655    -7.889280467
 H       -9.193469988    12.106066449    -8.596397807
 H       -8.273284961    14.281079306    -9.147795374
 H       -9.607250784    14.538515139    -8.030026632
 H       -7.941038984    16.029987788    -7.232528271
 H       -7.836643904    14.662623077    -6.103098477
 H        2.262673626    -1.029869275    -0.041200223
 H        2.275360578     0.478669324     0.906399891
 H        2.260810207     0.543745904    -0.877119346
 H      -14.494805579    20.007893934   -23.574275902
 H      -12.797872286    19.489144007   -23.731366693
 H      -13.276460341    20.595199344   -22.414561578
 H      -15.311760666    17.138664076   -23.606493588
 C      -13.321544476    16.321485420   -23.911626742
 C      -14.939471108    15.559566253   -22.162965929
 H      -15.569290362    17.731321209   -20.109051125
 C      -15.046770537    19.802985947   -19.733280638
 C      -16.700668587    19.013983872   -21.443728632
 H       -1.446393856    17.098623822   -16.255496043
 C       -2.325603738    18.314231429   -14.682698670
 C       -0.500197533    16.629740855   -14.358927968
 H       -1.400746047    13.766868256   -15.226084130
 C       -3.252368463    12.811707885   -15.842263059
 C       -1.774243436    14.188242187   -17.324284246
 H       -5.413603201    13.759934046     1.815393585
 C       -6.138546647    11.740135866     2.155086564
 C       -3.993972398    12.675229120     3.051396816
 H       -2.082144433    13.604515325     0.750084509
 C       -2.061642571    13.492864631    -1.421158308
 C       -3.366623116    15.149890814    -0.071207769
 H       -1.777696296    -0.913962261    -1.443263201
 C       -0.299686029    -0.175659859    -2.849197618
 C       -0.180605489    -2.368193236    -1.640217659
 H       -0.121370475    -1.937387834     1.513138971
 C       -0.190118329    -0.229693240     2.855023141
 C       -2.138638006    -1.134374243     1.573609562
 H      -12.971447851    17.112327003   -24.587418789
 H      -13.672519990    15.501613432   -24.554594928
 H      -12.445973270    15.934403451   -23.370603638
 H      -15.800995796    15.779296862   -21.519899217
 H      -14.150979472    15.122139917   -21.534409570
 H      -15.263412912    14.760776444   -22.846052373
 H      -14.149285707    19.599433525   -19.131658056
 H      -15.869568970    19.945791598   -19.018355952
 H      -14.898672434    20.770382411   -20.231202128
 H      -17.050368983    18.216435375   -22.111913285
 H      -16.631203319    19.937756616   -22.033280502
 H      -17.505775635    19.176649194   -20.712388325
 H       -3.195408101    18.659873465   -15.258298897
 H       -1.564974888    19.102588442   -14.770120965
 H       -2.621373944    18.286932364   -13.623604461
 H        0.010193970    15.721080821   -14.702255681
 H       -0.709148557    16.512739659   -13.286095752
 H        0.234700648    17.443553657   -14.440836839
 H       -3.620682000    12.583335863   -14.832779877
 H       -2.745462341    11.903831730   -16.198473836
 H       -4.128773433    12.948727590   -16.491984166
 H       -1.005054801    14.965118038   -17.420051241
 H       -2.577744812    14.422876298   -18.037111013
 H       -1.313627223    13.255112217   -17.679630708
 H       -6.919805641    11.752902616     1.383075774
 H       -6.634776997    12.003819903     3.099953649
 H       -5.799387665    10.700044467     2.267306277
 H       -3.186116216    13.413581132     2.969524676
 H       -3.531549573    11.686730820     3.186073356
 H       -4.518331849    12.897633915     3.992184643
 H       -1.590428002    12.503149981    -1.497008134
 H       -1.250238048    14.227988635    -1.518438063
 H       -2.702354559    13.621792482    -2.305761453
 H       -3.857563831    15.412042973     0.874608509
 H       -4.076168019    15.352258998    -0.885732260
 H       -2.543227253    15.868047803    -0.197405856
 H       -0.656833228     0.863831997    -2.875278029
 H       -0.769495361    -0.682977965    -3.703836323
 H        0.778931145    -0.159783263    -3.054325600
 H       -0.461684649    -2.975943205    -0.770458698
 H        0.905303035    -2.459249350    -1.775246131
 H       -0.639892444    -2.852484261    -2.514309006
 H        0.896601755    -0.112283961     2.954512499
 H       -0.514741593    -0.826146366     3.719765935
 H       -0.645139068     0.763617279     2.978742529
 H       -2.515659007    -1.699316088     0.711785395
 H       -2.699351944    -0.190646840     1.630456911
 H       -2.421940378    -1.712094541     2.465599579

