187   

Si        0.000000000     0.000000000     0.000000000
 C        1.865371472     0.000000000     0.000000000
 C       -0.678274498     1.711105764     0.000000000
 C        0.124817149     2.805255819    -0.336959247
 C       -0.399320948     4.097797636    -0.333749754
 C       -1.736978830     4.325806010    -0.000230779
 C       -2.541472204     3.227705376     0.332873116
 C       -2.020978740     1.936602784     0.332093435
 C       -2.328329391     5.659590065     0.016581168
 C       -1.669542249     6.792881429    -0.279639065
 C       -2.260902433     8.126693910    -0.262827556
 C       -3.598745462     8.353505028     0.070867770
 C       -4.123053777     9.645927178     0.074135455
 C       -3.322150156    10.738324048    -0.272714822
 C       -1.980497208    10.513760312    -0.610235202
 C       -1.457005595     9.224132198    -0.599461016
Si       -3.987649647    12.453798752    -0.276929715
 C       -3.241712835    13.475762594    -1.598603110
 C       -2.813716575    12.958439358    -2.757932527
 C       -2.210828530    13.724855769    -3.847788766
 C       -1.811427179    13.040671497    -5.002843087
 C       -1.233672920    13.708154393    -6.071600259
 C       -1.129186553    15.114920028    -6.062359423
 C       -1.554714617    15.806614083    -4.908134256
 C       -2.060616192    15.114510843    -3.817015894
 N       -0.547289224    15.809218868    -7.135311495
 C       -0.361027252    15.101161742    -8.413196258
 C       -0.930939298    17.223047540    -7.284011215
 C       -1.638426754    14.537073536    -9.062984990
 C       -2.376222565    15.550155239    -9.958883292
 N       -3.846916922    15.577242961    -9.779147756
 C       -4.208667667    16.153285282    -8.515628742
 C       -4.265632487    17.556067303    -8.477680464
 C       -4.606775763    18.200086224    -7.298508127
 C       -4.888587600    17.467315846    -6.135876542
 C       -4.839798182    16.071853442    -6.186161510
 C       -4.517087225    15.413793665    -7.369020650
 C       -4.486068358    14.278604159   -10.057504012
 C       -5.243146250    18.203931286    -4.920361538
 C       -5.533678215    17.626387733    -3.748274130
Si       -5.978200215    18.529244424    -2.221262280
 C       -4.926649381    17.878897841    -0.861833002
 C       -3.606938376    17.516164311    -1.158452775
 C       -2.770733129    17.018212692    -0.162266906
 C       -3.224659275    16.901885042     1.155044476
 C       -4.541820517    17.275357189     1.450623735
 C       -5.387562313    17.754649870     0.452480808
 C       -2.380923976    16.385514018     2.227170976
 C       -1.104810101    15.995998218     2.066807569
 C       -0.254205309    15.478632374     3.133054744
 C       -0.699072772    15.337396492     4.449923677
 C        0.148661466    14.838088328     5.438324889
 C        1.460499908    14.466168220     5.128022019
 C        1.907234772    14.602955441     3.806699040
 C        1.058642099    15.100421114     2.822047564
Si        2.592120388    13.805444352     6.420829542
 C        1.922900800    14.100492847     8.136577648
 C        2.803111171    11.931745591     6.157565165
 C        4.288723264    14.644120768     6.221141055
 C       -5.649497097    20.394113225    -2.395915316
 C       -7.825759823    18.272911511    -1.860396755
 C       -5.871286714    12.476775180    -0.520737428
 C       -3.560794741    13.214563304     1.414394904
 C       -0.617381678    -0.919766898    -1.547924460
 C       -0.653973080    -0.907540135     1.540528424
 H        1.178252332     2.690020713    -0.606343283
 H        0.247802675     4.932703099    -0.596288107
 H       -3.586141415     3.383146306     0.595556524
 H       -2.696752977     1.119901011     0.600837578
 H       -3.385345707     5.687683912     0.296546800
 H       -0.612278644     6.764963201    -0.559296822
 H       -4.244521075     7.518778083     0.335804431
 H       -5.174143409     9.762030474     0.351063607
 H       -1.307953358    11.333124511    -0.887251695
 H       -0.411722231     9.068952881    -0.859216278
 H       -3.185095337    14.554227339    -1.386308429
 H       -2.875723610    11.882539774    -2.980585937
 H       -1.927653799    11.957213348    -5.056422527
 H       -0.871989168    13.130267973    -6.915471584
 H       -1.483319216    16.888742291    -4.858069515
 H       -2.363069212    15.671192906    -2.927848780
 H       -0.535640632    17.639093210    -8.223453637
 H       -0.481623074    17.805975439    -6.459123768
 H       -2.025630954    17.376382911    -7.271250006
 H       -4.315929837    14.029251748   -11.119087788
 H       -5.576442168    14.375755933    -9.912461044
 H       -4.125771121    13.440550551    -9.442387766
 H       -4.055139817    18.122806205    -9.383021249
 H       -4.659564642    19.288148994    -7.279495981
 H       -5.050483542    15.482003482    -5.291718514
 H       -4.490280799    14.327051827    -7.386575562
 H       -5.249631736    19.292126863    -5.065821689
 H       -5.524726811    16.529053006    -3.631525363
 H       -3.195152628    17.602883703    -2.170624490
 H       -1.753307674    16.725140218    -0.417700915
 H       -4.913148394    17.187692938     2.469480605
 H       -6.407412169    18.024430039     0.737215876
 H       -2.862648718    16.332043202     3.206980331
 H       -0.624601407    16.049328954     1.084322571
 H       -1.715705610    15.619909710     4.716656884
 H       -0.253922681    14.753003625     6.451424036
 H        2.922088862    14.326914186     3.506436223
 H        1.422212668    15.196914525     1.800415875
 H        0.164053796    15.782438841    -9.119403907
 H        0.357630256    14.266969313    -8.220806468
 H       -1.382381392    13.636927957    -9.650691830
 H       -2.324396535    14.178798038    -8.266521626
 H       -1.998989227    16.581602735    -9.780857805
 H       -2.182074562    15.331127008   -11.031980173
 H        2.263258929    -1.029043394     0.054270003
 H        2.260749662     0.555147400     0.870101229
 H        2.275389719     0.467255186    -0.912363423
 H        2.627177458    13.736998831     8.906206375
 H        0.961001153    13.582355570     8.295682132
 H        1.760089019    15.178218380     8.318775976
 H        3.446553473    11.573767562     7.012187175
 C        1.463489656    11.175074017     6.216429763
 C        3.513581426    11.570318595     4.840876111
 H        4.644787866    14.380148848     5.182880815
 C        4.201820553    16.178427090     6.312433893
 C        5.343354842    14.140696211     7.222642465
 H       -6.229221217    20.730007328    -3.303764498
 C       -6.144520269    21.209042579    -1.187807979
 C       -4.161667159    20.713818146    -2.630729936
 H       -8.041583572    18.855524524    -0.918110292
 C       -8.732135654    18.821968333    -2.976726714
 C       -8.189649903    16.800714748    -1.601802634
 H       -6.310466201    11.887013020     0.333914606
 C       -6.450881081    13.901791823    -0.469609174
 C       -6.305513814    11.809468549    -1.838199136
 H       -3.676677585    14.331896417     1.292701703
 C       -4.491548645    12.760302136     2.551843164
 C       -2.106076633    12.921745649     1.820579968
 H       -0.129201615    -1.936349905    -1.514814000
 C       -2.142805361    -1.123844012    -1.573212056
 C       -0.190873735    -0.227494399    -2.855472035
 H       -1.778669424    -0.911208267     1.443425147
 C       -0.185532148    -2.370466853     1.636681118
 C       -0.296973107    -0.179371548     2.849074534
 H        0.921921733    11.316710515     7.160298647
 H        1.637723766    10.093311057     6.122478929
 H        0.782194831    11.447992283     5.397097211
 H        4.513322593    12.012409325     4.747695889
 H        2.933211419    11.854701737     3.951525099
 H        3.653762856    10.481091057     4.777777999
 H        3.505025197    16.617608231     5.584272705
 H        5.184655499    16.624895051     6.104249453
 H        3.906152872    16.533355059     7.308590678
 H        5.512013921    13.057324612     7.168789490
 H        5.098776774    14.389869897     8.263708661
 H        6.314307566    14.613246701     7.014092557
 H       -7.224723404    21.120653445    -1.014839978
 H       -5.947805875    22.278992144    -1.349820595
 H       -5.632190262    20.943688661    -0.252183985
 H       -3.732075277    20.198870411    -3.500842795
 H       -3.533311311    20.472615907    -1.760962368
 H       -4.031849852    21.789837728    -2.813004187
 H       -8.594197419    19.894466112    -3.164426383
 H       -9.788806885    18.693760796    -2.701188175
 H       -8.599040631    18.296342398    -3.933411399
 H       -7.632525509    16.357178899    -0.764506918
 H       -8.037380661    16.159848947    -2.481756869
 H       -9.254310811    16.715624564    -1.341529377
 H       -6.216934790    14.436935206     0.460613285
 H       -7.546795055    13.864634805    -0.538463717
 H       -6.105819698    14.528955780    -1.305559304
 H       -5.978348652    10.764609161    -1.925505509
 H       -5.941667847    12.344649502    -2.727710347
 H       -7.401682298    11.795874723    -1.911050063
 H       -5.543760858    13.020506076     2.383331539
 H       -4.199149869    13.252288429     3.491126152
 H       -4.437043318    11.680027782     2.743478481
 H       -1.367698058    13.290418847     1.095671525
 H       -1.909483592    11.853301840     1.984748510
 H       -1.871648870    13.423874376     2.772190978
 H       -2.520888446    -1.692637706    -0.714390572
 H       -2.430323354    -1.694186433    -2.468480181
 H       -2.699232172    -0.177098222    -1.622700839
 H        0.896121013    -0.112659229    -2.954468019
 H       -0.643412699     0.767057761    -2.978840281
 H       -0.516607195    -0.822765583    -3.720473452
 H       -0.464976811    -2.974948089     0.764183243
 H       -0.649012127    -2.856187303     2.507710212
 H        0.899706257    -2.464362719     1.775003137
 H       -0.650150389     0.861531765     2.876574323
 H        0.781830526    -0.167668322     3.053379683
 H       -0.768203072    -0.686045485     3.703263995

