187   

Si        0.000000000     0.000000000     0.000000000
 C        1.864542063     0.000000000     0.000000000
 C       -0.684787812     1.707583539     0.000000000
 C        0.140787567     2.831552776    -0.101563615
 C       -0.404637010     4.116058485    -0.099152273
 C       -1.781794547     4.304725961     0.036564318
 C       -2.606169742     3.176814723     0.140125537
 C       -2.069045700     1.894182938     0.108941213
 C       -2.408409467     5.621259371     0.046089701
 C       -1.755084368     6.789301703    -0.071660642
 C       -2.404557856     8.095774781    -0.059322764
 C       -1.617171652     9.246641104    -0.190335109
 C       -2.198426251    10.513144992    -0.183420531
 C       -3.576516411    10.659377213     0.008788101
 C       -4.363353974     9.511005148     0.163310792
 C       -3.782559839     8.245246081     0.126075347
Si       -4.396042064    12.303442850     0.027253106
 C       -5.642211457    12.456294350     1.353380498
 C       -5.621858854    11.835364983     2.540362917
 C       -6.665367650    12.011973013     3.555816557
 C       -6.570401821    11.326163103     4.772312309
 C       -7.545478862    11.474298435     5.754185122
 C       -8.667016286    12.276820091     5.514117841
 C       -8.774280332    12.959250410     4.289141332
 C       -7.777466470    12.834562213     3.334411594
 N       -9.728218478    12.502692748     6.442655556
 C       -9.403597223    12.367373121     7.869838969
 C      -10.984462911    11.838977694     6.046695748
 C       -9.525599759    10.958187095     8.473197987
 C       -9.148403068    10.951019451     9.966341813
 N       -7.752082654    11.318412806    10.276480296
 C       -6.769038691    10.740280430     9.443764636
 C       -6.822453734     9.347692318     9.223992393
 C       -5.881484935     8.733945694     8.415684412
 C       -4.843410770     9.471447729     7.825479669
 C       -4.781070240    10.845886700     8.062845901
 C       -5.723842511    11.478888842     8.866066564
 C       -7.571405765    12.733499235    10.634565620
 C       -3.881003101     8.763344755     6.981623897
 C       -2.844477085     9.339879459     6.358223682
Si       -1.679878055     8.387536177     5.316732424
 C       -2.550826424     6.956837923     4.556764772
 C       -3.812857832     7.143038976     3.975865700
 C       -4.486848138     6.071566016     3.395976698
 C       -3.920345265     4.790516008     3.388986957
 C       -2.659561086     4.610180003     3.964221179
 C       -1.976753944     5.682910727     4.534656790
 C       -4.653040551     3.689179193     2.772970869
 C       -4.188501670     2.429936651     2.706310219
 C       -4.885022491     1.301554950     2.101690339
 C       -6.145065072     1.412725481     1.510663956
 C       -6.765544866     0.297504817     0.946352441
 C       -6.129251982    -0.947397445     0.946449885
 C       -4.864966154    -1.061269742     1.541328163
 C       -4.258066750     0.047942059     2.120206591
Si       -6.925821173    -2.432796406     0.208985072
 C       -8.592358972    -2.030914159    -0.526006895
 C       -5.746031008    -3.084349520    -1.136118685
 C       -7.166740794    -3.782184890     1.529010997
 C       -1.008110420     9.505328527     3.938124700
 C       -0.220350602     7.807894038     6.389760434
 C       -3.125395747    13.707562110     0.225001765
 C       -5.282855008    12.542636172    -1.641692756
 C       -0.608178738    -0.945218872    -1.537080886
 C       -0.684039459    -0.885203271     1.540839665
 H        1.226260111     2.745810257    -0.191888029
 H        0.257153763     4.974601050    -0.192138577
 H       -3.684868003     3.300695736     0.237344104
 H       -2.769271348     1.054591382     0.184223217
 H       -3.496777940     5.604069139     0.169380805
 H       -0.668908120     6.813457463    -0.187137093
 H       -0.540683461     9.153171239    -0.317407019
 H       -1.537036426    11.372398799    -0.319806659
 H       -5.445005178     9.565960693     0.326657587
 H       -4.414250168     7.366974140     0.249603630
 H       -6.453722217    13.159236806     1.099648255
 H       -4.831214102    11.132729013     2.837035319
 H       -5.716853162    10.673022050     4.968139037
 H       -7.428181486    10.950337902     6.701805009
 H       -9.634325635    13.600585822     4.107901877
 H       -7.871268301    13.385377948     2.398495434
 H      -11.788328299    12.140059915     6.738278339
 H      -10.918754131    10.739574489     6.030910721
 H      -11.271969584    12.179332270     5.036557640
 H       -8.304104485    13.007045739    11.413272601
 H       -7.679856271    13.435627739     9.792614395
 H       -6.568623514    12.868135090    11.080387802
 H       -7.602181754     8.756019336     9.695830668
 H       -5.944678534     7.658498325     8.244080578
 H       -3.985397126    11.441172592     7.612394816
 H       -5.650561012    12.551128039     9.017708749
 H       -4.101321680     7.688766479     6.892616009
 H       -2.631137712    10.413018392     6.458807790
 H       -4.304585412     8.121872269     3.959087372
 H       -5.464655898     6.233925335     2.947436008
 H       -2.190415214     3.627715605     3.960420479
 H       -0.987317143     5.481077702     4.953837308
 H       -5.630183254     3.952409799     2.362005691
 H       -3.204690184     2.182610819     3.121801209
 H       -6.655915908     2.372987129     1.488887655
 H       -7.755263450     0.441707950     0.505391640
 H       -4.320127256    -2.009412565     1.570599911
 H       -3.283864167    -0.059327746     2.598252862
 H       -8.371201646    12.759832518     8.024322641
 H      -10.089118032    13.063550275     8.409814539
 H      -10.559258117    10.581544814     8.362389025
 H       -8.890833132    10.244667464     7.912350083
 H       -9.832435927    11.620001141    10.532919251
 H       -9.311835881     9.926509475    10.380026703
 H        2.264298687    -1.029241797     0.018679491
 H        2.263598087     0.526035916     0.885771963
 H        2.270177815     0.497820128    -0.898385198
 H       -9.049244087    -2.924418384    -0.987706465
 H       -8.506775464    -1.260041534    -1.312912397
 H       -9.294695191    -1.655843940     0.239137854
 H       -4.761699617    -3.274855100    -0.616450972
 C       -6.209220789    -4.405964775    -1.772878427
 C       -5.498896427    -2.050979737    -2.250171170
 H       -7.757343170    -4.596465126     1.016521821
 C       -5.859039000    -4.405060022     2.049369944
 C       -7.987224461    -3.284001424     2.733043710
 H       -0.362619448    10.279349888     4.444590458
 C       -0.138523334     8.741869619     2.923981802
 C       -2.128908318    10.237369546     3.183927646
 H        0.440413839     7.194084189     5.711713046
 C        0.624188739     8.967983610     6.947890745
 C       -0.668856683     6.916445447     7.562132944
 H       -2.373230100    13.564792206    -0.603776267
 C       -3.745508628    15.107874972     0.064866528
 C       -2.377217844    13.652021011     1.568397797
 H       -5.748347603    13.569350705    -1.601231495
 C       -4.322977502    12.498917079    -2.843183603
 C       -6.409553091    11.518451948    -1.865317423
 H       -0.081408733    -1.942328673    -1.504365191
 C       -2.123938379    -1.209609724    -1.554193092
 C       -0.218563500    -0.241465565    -2.850074327
 H       -1.802308830    -0.938366182     1.383118648
 C       -0.166625949    -2.324384699     1.707073390
 C       -0.425417145    -0.102360989     2.840540497
 H       -6.338013234    -5.218318260    -1.046008046
 H       -5.459086842    -4.757471263    -2.496344572
 H       -7.149465143    -4.306437039    -2.331215469
 H       -5.105194294    -1.094659286    -1.875239837
 H       -6.398642082    -1.830673449    -2.839422058
 H       -4.752774899    -2.434335333    -2.961018665
 H       -5.220511034    -4.811313595     1.254843373
 H       -6.087552116    -5.247571029     2.718626567
 H       -5.258614265    -3.700942368     2.641774822
 H       -8.978551726    -2.900890390     2.458108662
 H       -7.474125016    -2.496045224     3.303034174
 H       -8.161937267    -4.109680042     3.437746404
 H        0.714661441     8.222466629     3.376457690
 H        0.279382710     9.441873291     2.186532991
 H       -0.713565059     7.999813803     2.346687602
 H       -2.766412592    10.853929650     3.830672261
 H       -2.778504075     9.554702697     2.612573899
 H       -1.690900053    10.917520688     2.437243227
 H        1.064257048     9.601514508     6.167397405
 H        1.468125234     8.571287791     7.530569959
 H        0.059749396     9.618188597     7.630423869
 H       -1.242120066     6.033137783     7.249466918
 H       -1.279142976     7.458859649     8.299071649
 H        0.207595984     6.537926510     8.106273423
 H       -4.221657844    15.265546733    -0.911183954
 H       -2.963660978    15.876538551     0.149549499
 H       -4.486834746    15.338988499     0.842404527
 H       -1.831933054    12.710917848     1.726499082
 H       -3.041023747    13.798921453     2.433015466
 H       -1.626589445    14.453262551     1.616801392
 H       -3.538377853    13.265271351    -2.803140369
 H       -4.877979402    12.676249250    -3.775660880
 H       -3.830194802    11.522996098    -2.961738392
 H       -7.162989005    11.515588328    -1.066121828
 H       -6.035088039    10.490432364    -1.975092349
 H       -6.948022710    11.748314574    -2.795701522
 H       -2.485339685    -1.760304532    -0.676077379
 H       -2.387459382    -1.822485080    -2.428391433
 H       -2.716218402    -0.286907866    -1.638593933
 H        0.862160379    -0.085279237    -2.958973690
 H       -0.708443424     0.735808208    -2.971118906
 H       -0.528827080    -0.850145477    -3.711170644
 H       -0.378869884    -2.965360317     0.841618363
 H       -0.652029780    -2.801335394     2.570861922
 H        0.913184432    -2.371761047     1.898673523
 H       -0.814840962     0.925843362     2.812671068
 H        0.640195180    -0.041047879     3.097835943
 H       -0.917797584    -0.600955134     3.687413076

