187   

Si        0.000000000     0.000000000     0.000000000
 C        1.865596179     0.000000000     0.000000000
 C       -0.651388852     1.722624956     0.000000000
 C        0.090849720     2.754263274     0.585692716
 C       -0.392973674     4.061739747     0.591166321
 C       -1.630639401     4.368537127     0.018765451
 C       -2.375772136     3.333418938    -0.560724759
 C       -1.895352455     2.026152371    -0.567322796
 C       -2.173968027     5.722947560     0.002931291
 C       -1.557233531     6.796788162     0.524957530
 C       -2.092064350     8.154116856     0.514023406
 C       -1.334078299     9.178129893     1.098516764
 C       -1.800547142    10.489433569     1.113585756
 C       -3.039929316    10.808133793     0.543228971
 C       -3.797227048     9.788945911    -0.042405241
 C       -3.325452430     8.476355911    -0.058003283
Si       -3.648468667    12.543959128     0.567735979
 C       -5.418552620    12.606219507     0.117683553
 C       -5.959176467    13.413734236    -0.804328177
 C       -7.382698049    13.440834278    -1.143409862
 C       -7.825496131    14.334639287    -2.129831320
 C       -9.160823630    14.401733251    -2.489369729
 C      -10.103532115    13.528739577    -1.903084698
 C       -9.659849145    12.629681267    -0.915126879
 C       -8.324432516    12.609086639    -0.532575886
 N      -11.454392841    13.613424437    -2.282150100
 C      -11.732673081    13.918004214    -3.696566365
 C      -12.375299567    12.615815226    -1.714669325
 C      -11.104270721    12.914489197    -4.685520456
 C      -11.856095197    12.892914191    -6.029483282
 N      -12.827322098    11.781712870    -6.174908590
 C      -13.772421205    11.730742548    -5.110191471
 C      -14.687672981    12.796886018    -5.010951984
 C      -15.632988520    12.808710344    -3.998457217
 C      -15.716962155    11.752291991    -3.078181539
 C      -14.822391733    10.686521723    -3.197500537
 C      -13.864092062    10.664598368    -4.205553516
 C      -12.167513895    10.502391763    -6.493516332
 C      -16.734035847    11.811552505    -2.025371656
 C      -16.899604637    10.859451679    -1.098811936
Si      -18.142349261    10.862734182     0.241877201
 C      -17.289012773    10.503221769     1.831308113
 C      -15.910963162    10.715217986     1.948504222
 C      -15.254040380    10.446141895     3.148336131
 C      -15.959176471     9.971294237     4.257656754
 C      -17.340433284     9.766836263     4.138908689
 C      -17.999804014    10.030620366     2.940970194
 C      -15.311963633     9.676812646     5.531988038
 C      -13.999067965     9.829559796     5.774732347
 C      -13.348317067     9.536257417     7.047320966
 C      -14.046755485     9.057727323     8.158692551
 C      -13.383820987     8.790507771     9.356514543
 C      -12.006138957     9.002017162     9.469767346
 C      -11.303393474     9.481902057     8.356128043
 C      -11.966718486     9.742459622     7.160422640
Si      -11.117868563     8.653775585    11.044348249
 C      -12.303372289     8.459690708    12.471312706
 C      -10.112309853     7.048587704    10.856700788
 C       -9.910258762    10.085915562    11.382608436
 C      -19.019853828    12.543962046     0.366700374
 C      -19.435944798     9.516311135    -0.115197760
 C       -3.445598439    13.241373770     2.327130076
 C       -2.609238727    13.592439380    -0.632365014
 C       -0.651348450    -0.920622588    -1.533463523
 C       -0.636446620    -0.899864559     1.551094812
 H        1.065716186     2.577092820     1.048684817
 H        0.206462378     4.846392633     1.049393315
 H       -3.342817894     3.549738807    -1.010778588
 H       -2.522780800     1.260500542    -1.031559381
 H       -3.151718731     5.819817296    -0.477293694
 H       -0.578882500     6.696358551     1.004756742
 H       -0.369842865     8.947985507     1.547371053
 H       -1.167240688    11.245638146     1.585948344
 H       -4.769846023     9.982599620    -0.506205863
 H       -3.931473857     7.700277533    -0.521555230
 H       -6.043715705    11.907135386     0.697128684
 H       -5.364594067    14.126752430    -1.391094394
 H       -7.110172557    14.999715252    -2.614550492
 H       -9.479497053    15.131565666    -3.227876881
 H      -10.352570811    11.944802935    -0.436542677
 H       -8.009799175    11.914088039     0.247621283
 H      -13.407889402    12.822540261    -2.054368209
 H      -12.378406614    12.705471273    -0.613444086
 H      -12.132215244    11.578591614    -1.995667721
 H      -11.623458280    10.616861348    -7.447795220
 H      -12.934617920     9.724568735    -6.653211141
 H      -11.457046593    10.151067113    -5.729414981
 H      -14.652087595    13.603078717    -5.741084693
 H      -16.329319971    13.644502910    -3.926346641
 H      -14.872376171     9.850206242    -2.498191240
 H      -13.181811353     9.821789278    -4.270101380
 H      -17.350581081    12.718300770    -2.066523490
 H      -16.267733734     9.954253735    -1.095162559
 H      -15.307595664    11.092141341     1.115943494
 H      -14.180416389    10.614127290     3.214474483
 H      -17.907534774     9.398087718     4.991470349
 H      -19.077853736     9.851939811     2.906041230
 H      -15.983916953     9.309018430     6.312720366
 H      -13.328052446    10.198273777     4.993026654
 H      -15.120198782     8.888550077     8.097929393
 H      -13.983761768     8.417696931    10.191236242
 H      -10.225620153     9.666097875     8.386063313
 H      -11.403509946    10.113130225     6.305898364
 H      -12.839201116    13.955749702    -3.829131171
 H      -11.371284673    14.949215200    -3.910555500
 H      -10.038800335    13.164747074    -4.843357736
 H      -11.094242659    11.902542785    -4.236853706
 H      -12.411978604    13.844508738    -6.186333229
 H      -11.132941351    12.826578068    -6.872471681
 H        2.264675327    -1.028028366    -0.063009230
 H        2.277625997     0.461211211     0.914263401
 H        2.258031026     0.563066028    -0.866598323
 H      -11.761154399     8.296833952    13.419917418
 H      -12.983043195     7.602017887    12.325723043
 H      -12.924608844     9.365281538    12.595657315
 H       -9.639082323     6.865170457    11.864485101
 C      -10.996612894     5.834840341    10.516803438
 C       -8.986165883     7.145976354     9.812102190
 H       -9.195759065    10.101282701    10.508631656
 C      -10.616848029    11.452445984    11.436997958
 C       -9.080421176     9.898662694    12.665226030
 H      -19.425457449    12.760242342    -0.664038051
 C      -20.202011976    12.542989423     1.352147091
 C      -18.055706582    13.680969099     0.752266423
 H      -20.186220521     9.576832221     0.725907739
 C      -20.186782485     9.739052009    -1.439636740
 C      -18.832192239     8.100643929    -0.111323712
 H       -2.339532585    13.210506810     2.547720778
 C       -3.917441449    14.700274982     2.454440038
 C       -4.164462800    12.385976717     3.385647600
 H       -3.100369657    14.608486528    -0.657052591
 C       -1.149487214    13.784068642    -0.184006134
 C       -2.614875760    13.020802632    -2.062166223
 H       -1.777028642    -0.907002327    -1.449069530
 C       -0.267680336    -0.221492356    -2.850325293
 C       -0.204720211    -2.392243417    -1.600757685
 H       -0.178065983    -1.930211980     1.520249163
 C       -0.189883326    -0.217980372     2.857314027
 C       -2.167516396    -1.057769991     1.574187895
 H      -11.780191186     5.643297090    11.261010385
 H      -10.384248990     4.922619477    10.474302847
 H      -11.484137040     5.923414235     9.535228020
 H       -8.253398129     7.932390280    10.033177821
 H       -9.362210422     7.311361326     8.792563522
 H       -8.421854392     6.202412326     9.779627866
 H      -11.185574785    11.683251371    10.524780434
 H       -9.875222372    12.256422126    11.547853147
 H      -11.304496082    11.547070453    12.287795289
 H       -8.489743728     8.973460312    12.669859579
 H       -9.692543655     9.909478829    13.576749383
 H       -8.360102557    10.723215825    12.769615251
 H      -20.991070223    11.828351142     1.085740172
 H      -20.679419080    13.533811883     1.366670204
 H      -19.896605370    12.337663537     2.387949250
 H      -17.198082154    13.781396976     0.073127856
 H      -17.655841849    13.572477791     1.771137665
 H      -18.582040748    14.645618567     0.730574964
 H      -20.720392056    10.697321709    -1.482280158
 H      -20.948026006     8.957549493    -1.576634237
 H      -19.529812472     9.684575763    -2.319481816
 H      -18.309676196     7.851884244     0.823250594
 H      -18.130520717     7.931698235    -0.939518092
 H      -19.628740110     7.351429279    -0.225259264
 H       -3.384325492    15.390016076     1.787556027
 H       -3.743575996    15.064699001     3.476918688
 H       -4.993943543    14.819838566     2.264498517
 H       -3.845935535    11.334005763     3.384729550
 H       -5.257772071    12.402689570     3.279109529
 H       -3.946732724    12.770979610     4.392011710
 H       -1.054218142    14.270290449     0.795119303
 H       -0.619604781    14.430115120    -0.899200973
 H       -0.585067983    12.841823261    -0.150137165
 H       -3.622540277    12.892824199    -2.480836365
 H       -2.105875114    12.048642366    -2.133548196
 H       -2.080898081    13.698617484    -2.742606743
 H       -0.597294493     0.826110202    -2.899207585
 H       -0.740570174    -0.732723826    -3.700830048
 H        0.813280397    -0.236014230    -3.043794871
 H       -0.512447901    -2.980367279    -0.726519523
 H        0.881388222    -2.505982576    -1.715166607
 H       -0.658027169    -2.882036071    -2.474860780
 H        0.900288028    -0.144381927     2.960043925
 H       -0.541259920    -0.797205166     3.723338523
 H       -0.606086061     0.792956056     2.975143025
 H       -2.559026801    -1.629664349     0.723364594
 H       -2.696288443    -0.094322230     1.603398503
 H       -2.475809253    -1.603525808     2.477767156

