187   

Si        0.000000000     0.000000000     0.000000000
 C        1.865264755     0.000000000     0.000000000
 C       -0.675404237     1.712707327     0.000000000
 C        0.124463476     2.800890884     0.363478091
 C       -0.394742409     4.095310703     0.360889405
 C       -1.724360289     4.331196334     0.001862438
 C       -2.525923307     3.239401326    -0.357402812
 C       -2.010205968     1.946253484    -0.357228956
 C       -2.309636602     5.667817836    -0.015078187
 C       -1.651168797     6.794720625     0.305071522
 C       -2.234407584     8.132157112     0.288815726
 C       -3.564369871     8.370271429    -0.070056151
 C       -4.080667951     9.665274628    -0.071733851
 C       -3.271975591    10.752118035     0.277832606
 C       -1.939192208    10.517929394     0.637782660
 C       -1.429739570     9.221830879     0.646599345
Si       -3.945172570    12.462688386     0.278098051
 C       -2.573763266    13.666807408     0.166286048
 C       -2.392524476    14.728280455     0.962081477
 C       -1.274168822    15.665502264     0.830736347
 C       -1.187712378    16.744400608     1.724669217
 C       -0.149471016    17.657403352     1.641287629
 C        0.822843816    17.532119509     0.629115047
 C        0.743206125    16.453810959    -0.262900955
 C       -0.284673668    15.523867517    -0.144354478
 N        1.863053283    18.501831542     0.597961458
 C        1.382247182    19.877231777     0.330706824
 C        3.035067486    18.149832923    -0.223632355
 C        0.581726847    20.030259179    -0.975592389
 C       -0.939622574    20.024777342    -0.719880325
 N       -1.732967563    19.555672001    -1.869964502
 C       -1.544549535    20.233440889    -3.087757738
 C       -1.325304273    21.628439833    -3.081398590
 C       -1.137604476    22.314106338    -4.269944835
 C       -1.211658993    21.657320134    -5.506880863
 C       -1.460335430    20.282342471    -5.512307756
 C       -1.631178588    19.575373131    -4.329021887
 C       -1.843820656    18.089166504    -1.930372687
 C       -1.005163168    22.430126732    -6.732841118
 C       -1.052756226    21.908863671    -7.965720270
Si       -0.803293722    22.824257127    -9.527215808
 C        0.422784692    21.941817058   -10.577312194
 C        1.295017238    21.005242647   -10.012839966
 C        2.224733625    20.335778437   -10.807738018
 C        2.310583240    20.594440949   -12.178448489
 C        1.439398246    21.537538255   -12.740069441
 C        0.506452540    22.204544211   -11.950528253
 C        3.267291497    19.918385797   -13.048421833
 C        4.155234838    18.996540003   -12.638853014
 C        5.112048776    18.320313995   -13.508524857
 C        5.195495058    18.574701261   -14.879846208
 C        6.125842919    17.904810080   -15.674323434
 C        6.998446560    16.968139858   -15.111651330
 C        6.916968422    16.711195174   -13.736257976
 C        5.983751534    17.377415840   -12.946949283
Si        8.231969936    16.075465266   -16.146010410
 C        8.398276525    16.847147007   -17.836270501
 C        9.905887344    16.109581051   -15.240007518
 C        7.692932775    14.261710370   -16.353219975
 C       -2.466486252    22.919820684   -10.447120869
 C       -0.184872235    24.592161681    -9.197231514
 C       -5.069740845    12.707837372    -1.237360180
 C       -4.975228153    12.730748103     1.853055242
 C       -0.653178433    -0.907296862    -1.540942697
 C       -0.621695015    -0.918028737     1.546919422
 H        1.171795181     2.679333885     0.653641674
 H        0.249997442     4.925281970     0.644438820
 H       -3.564434348     3.400924241    -0.640113137
 H       -2.683285661     1.134385696    -0.646661380
 H       -3.360688940     5.703357355    -0.316058961
 H       -0.599986674     6.758310704     0.606297645
 H       -4.210777347     7.540976171    -0.351014575
 H       -5.128516801     9.789657189    -0.358419455
 H       -1.263570261    11.330763216     0.923488976
 H       -0.392612839     9.057128954     0.933128524
 H       -1.873037409    13.447488573    -0.657515891
 H       -3.073543821    14.978991789     1.785465384
 H       -1.941132318    16.861399233     2.504078526
 H       -0.070898638    18.467572373     2.363361083
 H        1.479293431    16.331393538    -1.052217205
 H       -0.317585851    14.681465921    -0.837283814
 H        3.849314812    18.860564340     0.003874073
 H        2.853210239    18.166833456    -1.309422471
 H        3.396613866    17.146602034     0.062691492
 H       -2.027975964    17.684408570    -0.917385853
 H       -0.944231561    17.593240814    -2.329146964
 H       -2.717493063    17.812935280    -2.546900892
 H       -1.300040363    22.171878794    -2.141426714
 H       -0.945452299    23.386940911    -4.240193966
 H       -1.523344477    19.745825563    -6.460587908
 H       -1.818446542    18.507357033    -4.379382353
 H       -0.801428198    23.492280338    -6.544065938
 H       -1.269908517    20.838665868    -8.121013519
 H        1.277315107    20.766098791    -8.944373391
 H        2.888919559    19.606862713   -10.347053225
 H        1.489966660    21.752943149   -13.805535610
 H       -0.148802781    22.927658751   -12.443718378
 H        3.219787394    20.216698673   -14.099841342
 H        4.202822946    18.698305015   -11.587397211
 H        4.530113397    19.301648879   -15.341928737
 H        6.143227266    18.145836986   -16.740786408
 H        7.573427155    15.989760891   -13.241508146
 H        5.934316333    17.163120572   -11.881058148
 H        0.775603619    20.199438952     1.206482963
 H        2.268702256    20.550286043     0.318297437
 H        0.869177134    20.961969169    -1.496949389
 H        0.845324087    19.219119016    -1.681651480
 H       -1.186327265    19.380031657     0.155659263
 H       -1.290441330    21.045707575    -0.447279393
 H        2.263131590    -1.029371186    -0.049776797
 H        2.275965092     0.471240312     0.910011173
 H        2.260199454     0.551078848    -0.872916326
 H        9.168757107    16.330216448   -18.435743145
 H        8.695018464    17.908959784   -17.759468640
 H        7.451194380    16.801485018   -18.401854664
 H        9.734013190    15.588504839   -14.253440739
 C       11.021934882    15.354330927   -15.983350567
 C       10.383481766    17.541730401   -14.938682842
 H        8.456572098    13.793931734   -17.039708849
 C        7.685001286    13.464647670   -15.036573295
 C        6.309953140    14.129915203   -17.017139264
 H       -2.270546648    23.519662873   -11.382443300
 C       -2.985067002    21.534397606   -10.871947574
 C       -3.560405274    23.639767911    -9.639297393
 H       -0.919111363    25.045999864    -8.470147002
 C        1.211020151    24.613293393    -8.547592245
 C       -0.156177297    25.476382278   -10.456784291
 H       -5.918019333    11.973613969    -1.116901138
 C       -5.670480730    14.122122359    -1.317711817
 C       -4.352010708    12.390914512    -2.561400280
 H       -5.276112093    13.818421755     1.846362701
 C       -6.259138104    11.882956158     1.892924643
 C       -4.166513347    12.463054014     3.135569350
 H       -1.777893982    -0.912050272    -1.444205339
 C       -0.296369112    -0.178638167    -2.849245632
 C       -0.183716207    -2.369842673    -1.637398563
 H       -0.141703382    -1.938497047     1.511026184
 C       -0.187928484    -0.232178647     2.855401086
 C       -2.148717143    -1.109763769     1.573091017
 H       10.783312022    14.299275896   -16.169812804
 H       11.942803407    15.359178173   -15.382025354
 H       11.282416377    15.813608953   -16.946136245
 H        9.656031895    18.128833656   -14.359842350
 H       10.623815628    18.113624122   -15.844715072
 H       11.303252131    17.513894154   -14.337188290
 H        8.659843100    13.443126359   -14.533298741
 H        7.419819695    12.415818921   -15.234758069
 H        6.941320218    13.836700956   -14.317748001
 H        6.253981415    14.601379056   -18.006711217
 H        5.499559502    14.548377340   -16.402929391
 H        6.064369110    13.068940165   -17.168354979
 H       -2.271728033    20.973748245   -11.492347551
 H       -3.897260608    21.642595051   -11.475711311
 H       -3.254701085    20.897774520   -10.018055643
 H       -3.296307550    24.670553133    -9.370341978
 H       -3.824439843    23.111424619    -8.711719856
 H       -4.484991917    23.703289418   -10.230502270
 H        1.271998250    24.033533683    -7.616438731
 H        1.492078162    25.643828356    -8.289434092
 H        1.997540340    24.238304025    -9.218435795
 H       -1.140179203    25.596334816   -10.927470242
 H        0.541450666    25.108791746   -11.222355153
 H        0.183759079    26.489370129   -10.196314979
 H       -6.277022961    14.387737044    -0.442245258
 H       -6.338894882    14.197831847    -2.187504328
 H       -4.909239961    14.905083037    -1.445847060
 H       -3.927923407    11.377326178    -2.595554271
 H       -3.542961091    13.097887798    -2.790465999
 H       -5.061911303    12.453139575    -3.398630107
 H       -6.943379094    12.087860659     1.059792426
 H       -6.823474875    12.099579934     2.811861224
 H       -6.058767626    10.802194215     1.906850546
 H       -3.248233805    13.061137217     3.210740452
 H       -3.879309240    11.406989411     3.244796794
 H       -4.769708759    12.710313816     4.020546748
 H       -0.649762662     0.862099896    -2.876750045
 H       -0.767109640    -0.685286877    -3.703746280
 H        0.782505763    -0.166630655    -3.053436872
 H       -0.467755842    -2.976136044    -0.767597892
 H        0.902234090    -2.463476813    -1.770350155
 H       -0.642493296    -2.853948061    -2.511864911
 H        0.900315874    -0.129755392     2.954690229
 H       -0.520374521    -0.825325336     3.719459787
 H       -0.629561727     0.766982723     2.980547876
 H       -2.531708415    -1.675727801     0.714556425
 H       -2.697670868    -0.158675804     1.622485922
 H       -2.440447154    -1.677728470     2.468584174

