187   

Si        0.000000000     0.000000000     0.000000000
 C        1.865336073     0.000000000     0.000000000
 C       -0.683318916     1.708869368     0.000000000
 C        0.138666648     2.818881930     0.217775185
 C       -0.394417328     4.107939051     0.214741479
 C       -1.759698274     4.316205114     0.003143773
 C       -2.582636715     3.202287634    -0.211863534
 C       -2.052919205     1.915114284    -0.214895156
 C       -2.361922216     5.645123303    -0.008673861
 C       -1.688781139     6.793208053     0.178074487
 C       -2.293471709     8.121165941     0.165786487
 C       -1.472728491     9.237642352     0.374811749
 C       -2.005616827    10.523895074     0.371625531
 C       -3.377643987    10.723652910     0.173303356
 C       -4.198927562     9.610445393    -0.033874065
 C       -3.660307818     8.324361207    -0.042679467
Si       -4.089279022    12.421418284     0.167830495
 C       -5.903517114    12.311005554     0.392784586
 C       -6.824682323    12.915743131    -0.368373442
 C       -8.270952579    12.810602759    -0.166363367
 C       -9.129955032    13.495240816    -1.036063702
 C      -10.507777749    13.430088105    -0.889995008
 C      -11.083631212    12.625311726     0.113439994
 C      -10.218119725    11.939449181     0.991289787
 C       -8.841270208    12.058207994     0.864820762
 N      -12.479778218    12.530197351     0.296714683
 C      -13.330386764    13.069286051    -0.787346488
 C      -12.938987386    11.229729887     0.823835357
 C      -14.800556235    13.211220349    -0.342985619
 C      -15.466050991    14.450582767    -0.979000935
 N      -15.416889906    15.682892252    -0.155789279
 C      -14.076378705    15.980285902     0.262941617
 C      -13.249768857    16.617205730    -0.675812066
 C      -11.941396580    16.934715120    -0.339026646
 C      -11.432431432    16.624862497     0.929935799
 C      -12.267600014    15.999720348     1.860294791
 C      -13.583060568    15.687155737     1.539547185
 C      -16.401113515    15.662533305     0.943261784
 C      -10.045797599    16.977370065     1.244836997
 C       -9.472039404    16.722353836     2.427773766
Si       -7.749827822    17.140636589     2.870179160
 C       -6.649494739    17.116172409     1.397492778
 C       -6.958159985    16.275056630     0.322552082
 C       -6.139059527    16.239731077    -0.803764818
 C       -4.991093973    17.033106185    -0.879669480
 C       -4.680977184    17.870882345     0.199037561
 C       -5.500277805    17.912666850     1.325208450
 C       -4.112826464    17.019251625    -2.044519268
 C       -4.315296724    16.255688727    -3.131770925
 C       -3.452049475    16.225503084    -4.305995067
 C       -2.300782150    17.008444436    -4.416406512
 C       -1.504658486    16.946271823    -5.560036415
 C       -1.842052395    16.094196320    -6.615983640
 C       -2.995345991    15.305278002    -6.505595104
 C       -3.788838359    15.370659894    -5.364355791
Si       -0.803378015    15.998966042    -8.132794059
 C        0.439228820    17.388130429    -8.203407017
 C        0.129680185    14.339564365    -8.149240372
 C       -1.952117056    16.063624832    -9.648830150
 C       -7.686195547    18.831791109     3.729790969
 C       -7.171524071    15.788869820     4.080356393
 C       -3.318332061    13.407867544     1.600493830
 C       -3.652579042    13.295257759    -1.461473537
 C       -0.659380480    -0.898400113    -1.543315882
 C       -0.603512743    -0.930251712     1.547571476
 H        1.213562963     2.718800831     0.391455504
 H        0.267848441     4.955502720     0.381516428
 H       -3.648763292     3.342493881    -0.379772559
 H       -2.743407966     1.085741123    -0.392213015
 H       -3.441256134     5.656174365    -0.186501593
 H       -0.609483745     6.783247294     0.355706610
 H       -0.405704680     9.100920010     0.538177951
 H       -1.315302861    11.357167845     0.530710864
 H       -5.276905879     9.707719484    -0.199125965
 H       -4.319064906     7.474845181    -0.211655232
 H       -6.197982900    11.690841222     1.254972961
 H       -6.556770478    13.540290985    -1.231300022
 H       -8.713943227    14.101718997    -1.841587135
 H      -11.131815294    14.003583578    -1.568993569
 H      -10.622247808    11.335037767     1.797330421
 H       -8.198106101    11.537507670     1.575703852
 H      -14.016731840    11.082914151     0.664054312
 H      -12.769142475    11.214471090     1.916315557
 H      -12.415153474    10.371647041     0.370118711
 H      -17.411946781    15.693086418     0.500834254
 H      -16.285401043    16.574594620     1.554156460
 H      -16.336944418    14.786316756     1.605246552
 H      -13.647525217    16.866487696    -1.657298655
 H      -11.304557597    17.430643346    -1.071124636
 H      -11.888509597    15.738555522     2.848797704
 H      -14.209220301    15.189803568     2.274409427
 H       -9.519798733    17.468090647     0.415372228
 H      -10.035543331    16.230629923     3.237629407
 H       -7.834651296    15.612467357     0.331019265
 H       -6.408967239    15.589524741    -1.634422045
 H       -3.793365585    18.498246027     0.159534794
 H       -5.210647788    18.586453901     2.135652835
 H       -3.249885721    17.686582547    -1.980957865
 H       -5.183541795    15.590276844    -3.190446710
 H       -2.016265732    17.678706913    -3.607422259
 H       -0.618362459    17.586019698    -5.591944030
 H       -3.308270494    14.621762669    -7.300208338
 H       -4.682820414    14.752922163    -5.298064095
 H      -12.938348659    14.085852489    -1.043137754
 H      -13.265722085    12.448797649    -1.706489983
 H      -15.370544639    12.304779066    -0.609431437
 H      -14.847898078    13.289935749     0.762575395
 H      -14.990357827    14.693695631    -1.956028996
 H      -16.532585718    14.234229873    -1.206145386
 H        2.263146055    -1.029791154    -0.038760210
 H        2.274236835     0.480726039     0.906036386
 H        2.261867249     0.541700622    -0.877965856
 H        1.026719822    17.349035517    -9.138188111
 H        1.151692014    17.343240744    -7.361110339
 H       -0.063302784    18.371754626    -8.168767966
 H        0.782174461    14.366350159    -9.069303432
 C        1.040766186    14.163159828    -6.920612448
 C       -0.793861062    13.112977705    -8.256440805
 H       -2.635435612    15.169571526    -9.557689382
 C       -2.831125002    17.327248003    -9.668582955
 C       -1.205679235    15.950567759   -10.989939795
 H       -6.615531672    18.978313553     4.055167154
 C       -8.059161420    19.984391464     2.779763101
 C       -8.576354577    18.910804528     4.983147972
 H       -7.854349086    15.862354935     4.975376065
 C       -7.324964107    14.382174270     3.474924309
 C       -5.725754149    15.975260350     4.568199875
 H       -2.202410460    13.266427809     1.500633826
 C       -3.609496583    14.913679148     1.529814814
 C       -3.740323211    12.875923971     2.981573510
 H       -4.185488736    14.292030973    -1.413437213
 C       -2.149640189    13.576535233    -1.634551574
 C       -4.153008250    12.539053514    -2.705160669
 H       -1.784021597    -0.894588855    -1.445606561
 C       -0.298534857    -0.168271778    -2.849641545
 C       -0.200357243    -2.363981870    -1.644473236
 H       -0.091158859    -1.935115052     1.516140530
 C       -0.194229127    -0.226340258     2.854555694
 C       -2.123229206    -1.172356124     1.574440055
 H        1.790515198    14.957593747    -6.814947304
 H        1.601778137    13.220771777    -7.000266354
 H        0.478832713    14.107210702    -5.976979967
 H       -1.426386435    13.119751478    -9.152900325
 H       -1.448035937    12.993310058    -7.381059148
 H       -0.191656037    12.194273197    -8.314554864
 H       -3.440284694    17.446461324    -8.761198448
 H       -3.538486568    17.281449414   -10.508895604
 H       -2.252363874    18.250858556    -9.802022410
 H       -0.609987262    15.032936260   -11.079978119
 H       -0.539850600    16.802127055   -11.183002221
 H       -1.926860075    15.930853965   -11.820027351
 H       -7.428335418    20.031901099     1.881316064
 H       -7.939524691    20.949749187     3.291095367
 H       -9.105937141    19.940436285     2.445652760
 H       -8.322454913    18.164165642     5.746290159
 H       -9.646321024    18.806728117     4.754244118
 H       -8.460424429    19.892250056     5.465066692
 H       -8.357706244    14.142102486     3.182224304
 H       -7.025971588    13.619860628     4.207035676
 H       -6.694158148    14.223636858     2.585578845
 H       -5.550238151    16.938414459     5.062589102
 H       -4.986732129    15.873996581     3.759519198
 H       -5.475445043    15.200360021     5.307061859
 H       -3.233537013    15.390751976     0.613763042
 H       -3.125186516    15.435001841     2.366698424
 H       -4.683331075    15.150161079     1.594355105
 H       -3.545197458    11.803453282     3.115840633
 H       -4.803281721    13.054101845     3.198516823
 H       -3.175455807    13.391700651     3.770872858
 H       -1.720235081    14.178358558    -0.823944587
 H       -1.984888365    14.152221626    -2.559199292
 H       -1.551100164    12.661165006    -1.731029976
 H       -5.231082971    12.334078533    -2.694133416
 H       -3.638827067    11.578815529    -2.852374262
 H       -3.954004478    13.134659840    -3.608705158
 H       -0.646328366     0.874534201    -2.873818553
 H       -0.772868073    -0.669483253    -3.705317351
 H        0.780207043    -0.161886167    -3.054254803
 H       -0.486911926    -2.970347819    -0.775572231
 H        0.884665555    -2.464514644    -1.779550988
 H       -0.664070553    -2.842539712    -2.519307416
 H        0.889910065    -0.087769469     2.955122699
 H       -0.508697007    -0.826705748     3.720198042
 H       -0.667757785     0.758755012     2.975052011
 H       -2.491984776    -1.731014487     0.705071328
 H       -2.701636665    -0.240714703     1.648131007
 H       -2.391941015    -1.769307284     2.458205355

