187   

Si        0.000000000     0.000000000     0.000000000
 C        1.865310434     0.000000000     0.000000000
 C       -0.675159757     1.712698984     0.000000000
 C        0.129481801     2.803217105     0.345339275
 C       -0.390264324     4.097452321     0.342668341
 C       -1.725179691     4.330771319     0.002075846
 C       -2.531362659     3.236568959    -0.339272387
 C       -2.015015437     1.943682982    -0.339621703
 C       -2.311234394     5.667022886    -0.014227792
 C       -1.648677159     6.796137433     0.289239756
 C       -2.233213337     8.132994292     0.273417572
 C       -1.423586093     9.225338669     0.613214046
 C       -1.936544605    10.519670873     0.612413485
 C       -3.277579568    10.750413127     0.280795479
 C       -4.088297489     9.662180679    -0.058058314
 C       -3.568490880     8.368178266    -0.065282412
Si       -3.961439627    12.457909717     0.277840103
 C       -5.784260679    12.395745557     0.392121063
 C       -6.643464108    13.043859936    -0.404986440
 C       -8.099696761    12.965320284    -0.277412637
 C       -8.899630397    13.689892953    -1.171744322
 C      -10.282517292    13.649359575    -1.093370464
 C      -10.921973658    12.829702275    -0.138790450
 C      -10.118248122    12.099255572     0.757804817
 C       -8.733849978    12.189328987     0.696827935
 N      -12.326688934    12.791318867    -0.062378282
 C      -13.076088598    13.043469854    -1.305873976
 C      -12.918463097    11.710215235     0.745010585
 C      -12.838350037    11.971265036    -2.381305036
 C      -13.548654727    12.353585953    -3.689760610
 N      -13.469654913    11.302556634    -4.719266280
 C      -14.111307390    10.081034304    -4.443894445
 C      -15.240430138    10.042533206    -3.598053436
 C      -15.874101115     8.840646400    -3.325346936
 C      -15.447209723     7.643636556    -3.916318841
 C      -14.348717912     7.687898052    -4.779558255
 C      -13.691914776     8.880849104    -5.050239917
 C      -12.140643901    11.226271916    -5.350724199
 C      -16.152305431     6.402033775    -3.593440594
 C      -15.831373944     5.203750234    -4.098282714
Si      -16.675152852     3.624946228    -3.730771444
 C      -17.088613917     2.761059063    -5.301173753
 C      -17.163993653     3.476940377    -6.502252097
 C      -17.476859573     2.824932527    -7.692351038
 C      -17.732709013     1.447678838    -7.709854455
 C      -17.663144780     0.737537164    -6.507700453
 C      -17.345657794     1.385892728    -5.314985386
 C      -18.056206214     0.810183941    -8.981911868
 C      -18.317286413    -0.498737645    -9.137791209
 C      -18.640714239    -1.135524738   -10.410201774
 C      -18.710410990    -0.426345567   -11.612108133
 C      -19.023211836    -1.075439362   -12.806288723
 C      -19.266885645    -2.452333395   -12.824868053
 C      -19.197170067    -3.166163401   -11.620835315
 C      -18.890790813    -2.514311914   -10.429488123
Si      -19.680807984    -3.322421280   -14.393425828
 C      -19.277057354    -2.277100944   -15.884667005
 C      -18.704856665    -4.955774863   -14.452110358
 C      -21.539871850    -3.730896278   -14.413923408
 C      -15.501165992     2.537064957    -2.701136499
 C      -18.272156326     3.909218008    -2.738339489
 C       -3.293675586    13.409291652     1.784800503
 C       -3.399518734    13.349349521    -1.305258758
 C       -0.654243721    -0.906853184    -1.540717940
 C       -0.619772177    -0.919184493     1.547070944
 H        1.180934478     2.683782983     0.620939941
 H        0.258286980     4.929334371     0.611350588
 H       -3.573965737     3.396151142    -0.607864524
 H       -2.691581920     1.129984907    -0.615508230
 H       -3.366613017     5.700478399    -0.300227777
 H       -0.593254660     6.762074871     0.575116327
 H       -0.381055966     9.063218171     0.879774997
 H       -1.257503058    11.332978893     0.882673095
 H       -5.142367570     9.785541385    -0.327876005
 H       -4.217524742     7.537492185    -0.336225761
 H       -6.145750826    11.759991057     1.217884934
 H       -6.317028911    13.690381880    -1.230023788
 H       -8.429197815    14.308358932    -1.936863844
 H      -10.868492996    14.252043603    -1.780791923
 H      -10.567243063    11.463646569     1.514435187
 H       -8.136428736    11.625674431     1.415874193
 H      -14.019112912    11.756688376     0.692738298
 H      -12.642944102    11.858707398     1.804996024
 H      -12.600298446    10.702767363     0.429496505
 H      -11.714582044    12.237125542    -5.463993955
 H      -12.247956264    10.809447130    -6.368700806
 H      -11.421928220    10.610303204    -4.785108691
 H      -15.619501749    10.953800890    -3.145290580
 H      -16.729772394     8.833214302    -2.649335360
 H      -13.995381008     6.771425270    -5.255874219
 H      -12.845540555     8.868994494    -5.729723471
 H      -16.983827863     6.548050400    -2.891683248
 H      -14.985077422     5.090387068    -4.796596023
 H      -16.979277790     4.555410468    -6.547140243
 H      -17.525401483     3.395719264    -8.617861453
 H      -17.857579908    -0.333126902    -6.494118854
 H      -17.304291029     0.778185926    -4.406966608
 H      -18.075404969     1.487449264    -9.840938421
 H      -18.298203516    -1.176313374    -8.279244096
 H      -18.520592287     0.645417130   -11.625613065
 H      -19.063937805    -0.467201216   -13.714140821
 H      -19.377717554    -4.243796137   -11.574512181
 H      -18.843193516    -3.085470137    -9.504309635
 H      -14.158961394    13.106964404    -1.052430070
 H      -12.800478152    14.053257611    -1.686790761
 H      -11.753034870    11.840712767    -2.558390410
 H      -13.196742685    10.985696885    -2.025356438
 H      -14.622033286    12.586372705    -3.503739805
 H      -13.111162591    13.287210662    -4.111464828
 H        2.263169308    -1.029819536    -0.038974827
 H        2.275920951     0.480748315     0.905045999
 H        2.260221119     0.541884926    -0.878666158
 H      -19.489632941    -2.821922281   -16.821813993
 H      -18.206771634    -2.001575593   -15.896558775
 H      -19.865843429    -1.343356340   -15.902335554
 H      -19.043519059    -5.550865245   -13.554567759
 C      -18.990764402    -5.796824274   -15.708918574
 C      -17.185728876    -4.739918559   -14.327892094
 H      -21.734568489    -4.216719042   -15.413507043
 C      -21.964549146    -4.719473714   -13.313226592
 C      -22.422187886    -2.473052243   -14.314528954
 H      -16.073387034     1.591754643    -2.472844358
 C      -14.229213782     2.146784761    -3.474793102
 C      -15.097749509     3.184276459    -1.364639875
 H      -17.974272200     4.526195269    -1.841652335
 C      -19.326046047     4.698429672    -3.536597176
 C      -18.914015676     2.606963164    -2.227297761
 H       -2.173561140    13.450489701     1.655538520
 C       -3.817573055    14.853845807     1.864261400
 C       -3.592391435    12.692268570     3.113456105
 H       -3.926447624    14.347290511    -1.302572850
 C       -1.883805346    13.612386005    -1.353966451
 C       -3.810132144    12.592226253    -2.581583257
 H       -1.778739670    -0.914285958    -1.441401770
 C       -0.302159575    -0.175789861    -2.848939509
 C       -0.181215002    -2.368044444    -1.640090725
 H       -0.138846561    -1.939187311     1.510019482
 C       -0.185225796    -0.233657354     2.855492444
 C       -2.146539505    -1.112639008     1.575089502
 H      -20.051384151    -6.052809917   -15.828892857
 H      -18.449049317    -6.752263284   -15.652041798
 H      -18.657206284    -5.310298432   -16.635095675
 H      -16.898325109    -4.187112698   -13.421961477
 H      -16.755806738    -4.210289166   -15.188396710
 H      -16.670397582    -5.709385786   -14.272287823
 H      -21.448239671    -5.685893405   -13.372787719
 H      -23.038394669    -4.940287445   -13.401066740
 H      -21.817390715    -4.319358647   -12.300024575
 H      -22.240661356    -1.748095369   -15.118372904
 H      -22.306336807    -1.944763121   -13.357119464
 H      -23.483641920    -2.750652133   -14.385716792
 H      -14.437269061     1.640352980    -4.427960240
 H      -13.627016823     1.445147928    -2.880254538
 H      -13.578586504     3.005482328    -3.690096206
 H      -15.953167219     3.415673816    -0.717110362
 H      -14.519309048     4.110148110    -1.495253834
 H      -14.455853884     2.498789914    -0.793078980
 H      -18.963323837     5.666989471    -3.907078405
 H      -20.196114403     4.916255726    -2.901589527
 H      -19.709573554     4.139800569    -4.402772061
 H      -18.259430171     2.030064775    -1.561814954
 H      -19.238872726     1.942111292    -3.040095777
 H      -19.817101767     2.837518059    -1.643509110
 H       -3.567006187    15.457178150     0.982296773
 H       -3.371226449    15.369500828     2.726544827
 H       -4.906882049    14.906769561     2.004730702
 H       -3.210189211    11.662259492     3.148278077
 H       -4.664924364    12.656793789     3.349083807
 H       -3.111599116    13.225780918     3.945770573
 H       -1.523268202    14.238040849    -0.527585164
 H       -1.625383082    14.148587850    -2.278755781
 H       -1.288895108    12.688164674    -1.361889354
 H       -4.889170546    12.398179032    -2.650158165
 H       -3.296563500    11.625393543    -2.686273962
 H       -3.544183516    13.179590737    -3.471498446
 H       -0.657217843     0.864486144    -2.873901930
 H       -0.774657968    -0.681848244    -3.702819690
 H        0.776076551    -0.161841905    -3.056170941
 H       -0.460641121    -2.975936203    -0.769930257
 H        0.904547453    -2.458475455    -1.776739644
 H       -0.641566005    -2.852605778    -2.513466813
 H        0.902975913    -0.129280483     2.953149123
 H       -0.515289326    -0.827986397     3.719594925
 H       -0.628395623     0.764665956     2.981918786
 H       -2.529755713    -1.679300169     0.717106940
 H       -2.696515784    -0.162160112     1.624869146
 H       -2.436653028    -1.680640807     2.471051398

