187   

Si        0.000000000     0.000000000     0.000000000
 C        1.865470201     0.000000000     0.000000000
 C       -0.681031260     1.710210238     0.000000000
 C        0.147032771     2.820387421    -0.192368710
 C       -0.383717977     4.110400633    -0.189786703
 C       -1.752537417     4.319282565    -0.003654719
 C       -2.581633866     3.205473991     0.186676043
 C       -2.054164849     1.917372645     0.190494327
 C       -2.352382479     5.649343208     0.006624542
 C       -1.673385047     6.797363147    -0.157747755
 C       -2.276173641     8.126269438    -0.146975935
 C       -1.450134418     9.243127207    -0.330840850
 C       -1.981054247    10.530656756    -0.328091411
 C       -3.355983477    10.728727274    -0.156161711
 C       -4.184256944     9.615471521     0.025107185
 C       -3.647244557     8.329069686     0.034168687
Si       -4.085445318    12.417309855    -0.148157542
 C       -5.831777930    12.301678301    -0.674045236
 C       -6.884301838    12.836295816    -0.042251034
 C       -8.265874796    12.710695662    -0.511864320
 C       -9.291870166    13.313772024     0.232639463
 C      -10.613090135    13.223060316    -0.170299231
 C      -10.952637816    12.493781837    -1.329215229
 C       -9.929191647    11.895649625    -2.079979611
 C       -8.603163375    12.024967120    -1.680274805
 N      -12.318571344    12.434171598    -1.694706937
 C      -13.226906850    11.918895926    -0.642478319
 C      -12.614196870    11.893676977    -3.031870360
 C      -12.645154591    10.833820470     0.278664160
 C      -12.207703644     9.569168517    -0.481988537
 N      -11.305259981     8.704973438     0.299725281
 C      -11.812035022     8.151394747     1.488175005
 C      -13.185962020     7.846260026     1.598787080
 C      -13.692117539     7.300531080     2.767118290
 C      -12.853480001     6.991495368     3.847518262
 C      -11.488256341     7.263337428     3.724203711
 C      -10.966305577     7.824576498     2.566363904
 C       -9.920089627     9.205534384     0.336875732
 C      -13.442193221     6.416654497     5.057497187
 C      -12.742466034     6.081866752     6.150218879
Si      -13.479422242     5.363764753     7.661179824
 C      -14.976230013     4.361800107     7.286954907
 C      -15.055629606     3.656837372     6.080196833
 C      -16.181470275     2.892354848     5.778973854
 C      -17.246729845     2.803900202     6.679808554
 C      -17.161444554     3.503232099     7.890665989
 C      -16.039555123     4.271405053     8.192980272
 C      -18.444212252     2.016178301     6.406874013
 C      -18.650826237     1.301504215     5.287776426
 C      -19.847970649     0.513537763     5.014054129
 C      -20.915505077     0.427089549     5.911334835
 C      -22.041538166    -0.338376912     5.608851512
 C      -22.126697877    -1.030159022     4.396644950
 C      -21.057696931    -0.944518604     3.494322432
 C      -19.932868178    -0.184084042     3.801523013
Si      -23.605717624    -2.044669859     3.982289550
 C      -25.023696160    -1.697686748     5.143660681
 C      -24.113175272    -1.654968113     2.189463195
 C      -23.160211758    -3.891818278     4.097191857
 C      -12.183883523     4.239382821     8.483759794
 C      -13.915203951     6.774071672     8.861757557
 C       -3.930927185    13.152219150     1.597995716
 C       -3.153373420    13.537503797    -1.369965927
 C       -0.600950404    -0.929456925    -1.548973271
 C       -0.661760962    -0.897545141     1.542416744
 H        1.225002396     2.719781736    -0.345831523
 H        0.283107883     4.957950415    -0.337095684
 H       -3.650790816     3.346206830     0.334719173
 H       -2.749273383     1.087717623     0.348502550
 H       -3.435268829     5.660908584     0.162877302
 H       -0.590839907     6.786757891    -0.313997395
 H       -0.380113693     9.106180966    -0.474712020
 H       -1.288260026    11.364521991    -0.469461461
 H       -5.266161224     9.712733260     0.165352194
 H       -4.310460035     7.478457034     0.181065043
 H       -5.960459557    11.733441114    -1.611344612
 H       -6.792105443    13.414076659     0.886258719
 H       -9.046369785    13.870015504     1.137985707
 H      -11.395636057    13.720302115     0.398604316
 H      -10.155612727    11.331775166    -2.979634463
 H       -7.821955791    11.566177774    -2.288855932
 H      -13.670856928    12.105761296    -3.274237035
 H      -12.442650877    10.811401846    -3.137160669
 H      -12.005355301    12.425731465    -3.784991035
 H       -9.658780385     9.685323103    -0.623542378
 H       -9.231546002     8.351545264     0.469350603
 H       -9.739354449     9.943575232     1.135918390
 H      -13.859163137     8.042130021     0.769787852
 H      -14.761052330     7.094660173     2.838837328
 H      -10.812331363     7.030667691     4.548443134
 H       -9.899386119     8.016228041     2.512404864
 H      -14.530024920     6.275193653     4.983007380
 H      -11.655107607     6.242059424     6.203019635
 H      -14.250170400     3.684530153     5.337934732
 H      -16.222219992     2.359105556     4.830884527
 H      -17.979419872     3.447279817     8.606093920
 H      -16.029625005     4.794022257     9.153201685
 H      -19.198396680     2.040374259     7.198839825
 H      -17.896393718     1.277089376     4.495813105
 H      -20.875778638     0.959149835     6.860087631
 H      -22.844157580    -0.368089246     6.350912033
 H      -21.068866546    -1.463082269     2.531485154
 H      -19.112130451    -0.130937190     3.088649200
 H      -13.519607542    12.801825534    -0.023263257
 H      -14.163262918    11.550662405    -1.114643023
 H      -11.783425461    11.240533115     0.846307948
 H      -13.392958209    10.567066912     1.051404439
 H      -13.092887743     8.972052297    -0.794682175
 H      -11.680229142     9.841894310    -1.424743924
 H        2.263017407    -1.029994957     0.038472976
 H        2.263003386     0.541258091     0.877663048
 H        2.273789492     0.480335607    -0.906474530
 H      -25.920754177    -2.276860737     4.860691336
 H      -25.299932359    -0.627817072     5.123347692
 H      -24.772842175    -1.961688781     6.185970384
 H      -23.225670833    -1.932961990     1.549541861
 C      -25.320847580    -2.474474200     1.701154339
 C      -24.400606022    -0.158579390     1.970297268
 H      -24.120412061    -4.449464895     3.896677982
 C      -22.121173671    -4.342898858     3.055181087
 C      -22.659580931    -4.291451800     5.497371836
 H      -11.293977600     4.896960900     8.703564154
 C      -12.667956340     3.629726728     9.810845623
 C      -11.721620112     3.105263976     7.551320740
 H      -14.307448448     6.280338812     9.797131575
 C      -12.699751984     7.633524877     9.253303234
 C      -15.017955327     7.693078719     8.306096915
 H       -4.480037687    14.137739807     1.571167989
 C       -4.589740951    12.263700582     2.669165522
 C       -2.474919818    13.429351216     2.012944631
 H       -2.090007442    13.589211155    -0.995461431
 C       -3.127263384    12.961523178    -2.796975963
 C       -3.711319399    14.970765241    -1.417292926
 H       -0.082384289    -1.931387529    -1.520524538
 C       -2.118976007    -1.181224560    -1.575110657
 C       -0.197103838    -0.219928137    -2.854578312
 H       -1.786574503    -0.888755744     1.445523741
 C       -0.208244736    -2.364866244     1.641101732
 C       -0.297060594    -0.170303870     2.849350127
 H      -25.162982294    -3.559134325     1.760401073
 H      -25.522749034    -2.251027150     0.643409792
 H      -26.245477981    -2.240796752     2.245392557
 H      -23.557762361     0.490416737     2.248423424
 H      -25.284147788     0.193703545     2.518897008
 H      -24.599158879     0.035439896     0.906610408
 H      -22.436842341    -4.166131598     2.019255859
 H      -21.948746673    -5.425696557     3.141894306
 H      -21.141077751    -3.865661555     3.196181821
 H      -23.381914434    -4.079596809     6.296132705
 H      -21.712061052    -3.803195087     5.767561503
 H      -22.469267151    -5.373681342     5.534762974
 H      -12.925843423     4.381608450    10.567453678
 H      -11.873760004     3.010291358    10.252235688
 H      -13.537243143     2.968176264     9.686335347
 H      -11.309622239     3.464304413     6.598175262
 H      -12.524240736     2.390967482     7.317593022
 H      -10.923351168     2.522772324     8.032576067
 H      -11.896365914     7.059694438     9.732445198
 H      -13.001728200     8.402468695     9.978896781
 H      -12.264874382     8.171909034     8.399424676
 H      -15.946365308     7.160548060     8.057368023
 H      -14.702486865     8.242289731     7.406955736
 H      -15.288891752     8.452728103     9.052519543
 H       -5.648750366    12.048188197     2.472518723
 H       -4.552273458    12.762339770     3.648002045
 H       -4.076675357    11.299257280     2.796056790
 H       -1.962219995    14.142234140     1.354614470
 H       -1.862792849    12.517668029     2.063526471
 H       -2.448807952    13.870148475     3.020278172
 H       -2.706435847    11.947568390    -2.850957552
 H       -2.498791481    13.589044941    -3.445033462
 H       -4.120589657    12.933943718    -3.265556932
 H       -3.678537696    15.483319184    -0.447211567
 H       -4.747423779    15.015557788    -1.782402299
 H       -3.115685736    15.583870734    -2.108871340
 H       -2.483154255    -1.745895453    -0.707585021
 H       -2.384738289    -1.776574443    -2.460942997
 H       -2.703971088    -0.253510117    -1.645049985
 H        0.886026589    -0.073901230    -2.955580915
 H       -0.677226990     0.762177362    -2.972827727
 H       -0.507953412    -0.820455924    -3.721456798
 H       -0.496078960    -2.968607989     0.770757602
 H       -0.674618124    -2.843668763     2.514501612
 H        0.876294324    -2.469768971     1.777048765
 H       -0.641760435     0.873395105     2.875624744
 H        0.781871995    -0.167699286     3.053015024
 H       -0.772209189    -0.671547151     3.704706710

