187   

Si        0.000000000     0.000000000     0.000000000
 C        1.865318938     0.000000000     0.000000000
 C       -0.672257017     1.713966270     0.000000000
 C        0.124659791     2.796940165     0.385159314
 C       -0.390341354     4.092961554     0.383055924
 C       -1.713124288     4.335820067     0.003738107
 C       -2.511900665     3.249167949    -0.376584716
 C       -2.000237974     1.954319553    -0.377155977
 C       -2.293331998     5.674680391    -0.013323696
 C       -1.635619510     6.796432856     0.325829574
 C       -2.212108466     8.136735048     0.310091583
 C       -3.534764898     8.384340524    -0.068611975
 C       -4.044325176     9.682017651    -0.068833502
 C       -3.236147355    10.762248145     0.301790419
 C       -1.910662198    10.518172173     0.681753205
 C       -1.407996332     9.219476328     0.689485596
Si       -3.899727796    12.478015322     0.304552113
 C       -2.517819739    13.672483326     0.242141741
 C       -2.350560170    14.723459854     1.055376030
 C       -1.225644960    15.656475978     0.968968669
 C       -1.156888358    16.722739059     1.877594175
 C       -0.113775723    17.632927126     1.838237679
 C        0.935551019    17.477903164     0.905885905
 C        0.867768456    16.407997415    -0.005843071
 C       -0.209447668    15.530777746     0.018535022
 N        1.985781746    18.412080318     0.881085286
 C        2.401543750    18.996438813     2.169479285
 C        3.098136888    18.144277808    -0.042414249
 C        2.790226913    17.977522496     3.254592020
 C        4.233713086    17.459612475     3.132745481
 N        5.257730897    18.309385602     3.766241727
 C        5.120034650    18.581085573     5.137650465
 C        4.508012683    17.632222459     5.985836860
 C        4.366712994    17.889011308     7.339550585
 C        4.868377927    19.067027868     7.912152487
 C        5.501465672    19.990822012     7.076872132
 C        5.635578048    19.758019301     5.713866957
 C        5.737695552    19.404862795     2.910721386
 C        4.690189044    19.285518767     9.348148101
 C        5.124700447    20.368911417    10.006430889
Si        4.897800745    20.634112394    11.801471831
 C        4.854844473    19.044680532    12.726643067
 C        5.638020976    17.967566705    12.290562860
 C        5.618531721    16.757109021    12.977834721
 C        4.827872269    16.595661279    14.123396983
 C        4.054324885    17.674291460    14.560685992
 C        4.068201874    18.886871434    13.871933397
 C        4.841206982    15.307723094    14.809095846
 C        4.128790144    15.019874006    15.911560792
 C        4.142578378    13.731657239    16.596810053
 C        4.915932275    12.653227945    16.159668057
 C        4.898915903    11.438782600    16.845500581
 C        4.110665584    11.278855652    17.989362625
 C        3.334028478    12.359144322    18.430080660
 C        3.348753181    13.568087933    17.740109204
Si        4.077277734     9.682529091    18.905626405
 C        5.465995955     8.556624010    18.373263601
 C        4.212337846    10.058159482    20.766943542
 C        2.419450894     8.803805016    18.585568771
 C        6.353786250    21.675830872    12.444698948
 C        3.283744450    21.602476638    12.079182043
 C       -4.994311092    12.736164181    -1.230459436
 C       -4.962201519    12.731922834     1.861020169
 C       -0.653178499    -0.909318390    -1.539731423
 C       -0.623636006    -0.915672546     1.547439858
 H        1.166548238     2.670113688     0.692117875
 H        0.252231428     4.918781691     0.683151380
 H       -3.545076047     3.416046254    -0.675210634
 H       -2.670907956     1.146737711    -0.683456081
 H       -3.339015889     5.716602088    -0.331270677
 H       -0.589693457     6.752937409     0.644130796
 H       -4.180418473     7.560568204    -0.366615040
 H       -5.086704877     9.813998056    -0.371427668
 H       -1.235882480    11.325819427     0.984049761
 H       -0.376743502     9.047247825     0.991840958
 H       -1.798274552    13.460337845    -0.566371462
 H       -3.052486052    14.967566652     1.863566217
 H       -1.943687280    16.847704785     2.622604240
 H       -0.109077516    18.468490313     2.532747072
 H        1.648134167    16.254479993    -0.743594860
 H       -0.245309736    14.719910801    -0.711168518
 H        3.847511635    18.950224923     0.023812343
 H        2.713104439    18.153920884    -1.079843589
 H        3.601696699    17.180134396     0.136781085
 H        5.787330365    19.073956031     1.860366294
 H        6.770210519    19.668079921     3.209192571
 H        5.113379212    20.311893392     2.964509325
 H        4.137201662    16.694268330     5.582130721
 H        3.868819438    17.151987029     7.971959447
 H        5.902627780    20.915032823     7.495662831
 H        6.134829985    20.503284240     5.104179879
 H        4.164224516    18.459025925     9.847931030
 H        5.641549257    21.186845147     9.482893776
 H        6.278010972    18.037577982    11.404180195
 H        6.227758079    15.929106569    12.620086651
 H        3.431694234    17.575607636    15.447774046
 H        3.442379578    19.693791702    14.262547149
 H        5.492714640    14.554903017    14.355499410
 H        3.477043644    15.772184166    16.365308473
 H        5.541061393    12.752872281    15.274154265
 H        5.524349021    10.631344612    16.454794545
 H        2.698880397    12.292377651    19.317915336
 H        2.737312737    14.394869202    18.096565501
 H        3.236330382    19.707078065     1.984972691
 H        1.555775660    19.627505400     2.535696685
 H        2.640032939    18.434113736     4.254579945
 H        2.089805097    17.117549620     3.227579242
 H        4.308898823    16.445349326     3.594447964
 H        4.507397239    17.311815203     2.065245423
 H        2.263330551    -1.029631158    -0.042013296
 H        2.276277278     0.478229724     0.906205304
 H        2.259823712     0.544611185    -0.877183468
 H        5.461233854     7.616758608    18.953733273
 H        6.448344012     9.038250174    18.529941086
 H        5.388651033     8.287809809    17.305216040
 H        3.317059150    10.697883021    21.019161387
 C        4.156818415     8.800651710    21.652522031
 C        5.478257707    10.861885421    21.115359941
 H        2.486596858     7.818513986    19.131471204
 C        1.200302044     9.568272169    19.131865364
 C        2.187066993     8.507319151    17.092690752
 H        6.331670699    22.639238453    11.858275405
 C        6.235064711    22.022192361    13.939072257
 C        7.711703746    20.995334098    12.194961843
 H        3.214163769    21.784316236    13.190434311
 C        3.268354647    22.970245094    11.373365527
 C        2.041896104    20.803396920    11.645012069
 H       -5.845029148    12.001367972    -1.132651576
 C       -5.593685378    14.150999428    -1.310819740
 C       -4.251124129    12.429664148    -2.542913443
 H       -5.256005435    13.821588027     1.861394887
 C       -6.252158561    11.892263800     1.864019318
 C       -4.182528879    12.443514442     3.157068659
 H       -1.777842447    -0.915021760    -1.442550142
 C       -0.297271226    -0.182143397    -2.849098888
 C       -0.182402471    -2.371593916    -1.634627427
 H       -0.149723305    -1.938889002     1.510255745
 C       -0.184225565    -0.233134251     2.855738495
 C       -2.151796900    -1.098341035     1.575169084
 H        3.241494515     8.211028474    21.513441532
 H        4.178450994     9.088181257    22.713862206
 H        5.012987560     8.130412760    21.499347922
 H        5.561457178    11.804713983    20.555871387
 H        6.404767191    10.296361625    20.949579739
 H        5.469645078    11.136583634    22.179778997
 H        1.244934023     9.743752767    20.214125646
 H        0.283000944     8.988334431    18.953433947
 H        1.048518331    10.538333250    18.637814176
 H        2.974216304     7.888747195    16.642778253
 H        2.092717350     9.419257172    16.485643844
 H        1.247416291     7.951920018    16.960680396
 H        5.330689293    22.593632408    14.183778216
 H        7.085591220    22.646306241    14.249527067
 H        6.255384914    21.134111393    14.587113316
 H        7.897902287    20.768306814    11.136329588
 H        7.831247436    20.060104791    12.760924683
 H        8.529404906    21.655359076    12.517459026
 H        4.082995906    23.633735468    11.690326539
 H        2.333554763    23.501181191    11.604412908
 H        3.310145699    22.886274377    10.278384743
 H        1.948075436    19.832067273    12.150298124
 H        2.013204743    20.614881706    10.561913385
 H        1.128054514    21.364796970    11.884672001
 H       -6.214010844    14.411234760    -0.443531713
 H       -6.246349513    14.234060060    -2.191541533
 H       -4.829405248    14.934005359    -1.419907389
 H       -3.828670543    11.415511958    -2.577671782
 H       -3.435668245    13.136636134    -2.748409932
 H       -4.943506033    12.502370530    -3.393630783
 H       -6.918590758    12.114139099     1.020920251
 H       -6.832555039    12.099195898     2.775019612
 H       -6.059076566    10.810206710     1.865671762
 H       -3.261590176    13.033913232     3.257622937
 H       -3.905144964    11.384314769     3.259722667
 H       -4.801936075    12.685344007     4.032133957
 H       -0.650157136     0.858759749    -2.877376597
 H       -0.768871910    -0.689492645    -3.702675347
 H        0.781448566    -0.170738132    -3.054137773
 H       -0.464786370    -2.976882580    -0.763588539
 H        0.903488647    -2.464286819    -1.768677190
 H       -0.641721943    -2.857475071    -2.507788608
 H        0.904710246    -0.136958295     2.953531959
 H       -0.518849978    -0.824846764     3.719909638
 H       -0.620068466     0.768451033     2.982017510
 H       -2.538563715    -1.664236705     0.718285752
 H       -2.695199211    -0.143890262     1.622178841
 H       -2.446401595    -1.662174240     2.472289992

