187   

Si        0.000000000     0.000000000     0.000000000
 C        1.865617709     0.000000000     0.000000000
 C       -0.675808321     1.712243031     0.000000000
 C        0.166908529     2.823583491    -0.100089479
 C       -0.359894856     4.114686639    -0.098744734
 C       -1.739143029     4.323600393    -0.018260912
 C       -2.582722170     3.209270498     0.079151244
 C       -2.058684635     1.919794644     0.095516671
 C       -2.331250270     5.656786968    -0.013886698
 C       -1.625919535     6.798137255    -0.085336116
 C       -2.202388593     8.136994356    -0.082069539
 C       -3.577991241     8.368517861    -0.002360539
 C       -4.083295804     9.669373657    -0.002586028
 C       -3.216623038    10.763773060    -0.044753362
 C       -1.834496427    10.534712596    -0.111209159
 C       -1.335095706     9.236747701    -0.134734895
Si       -3.804927669    12.508876538    -0.047966306
 C       -2.725008275    13.375272831     1.146280998
 C       -2.061221033    14.520218404     0.944241586
 C       -1.212163746    15.153925323     1.955752751
 C       -0.560561493    16.354649580     1.640033950
 C        0.252472082    16.990049388     2.564942758
 C        0.495579289    16.397768180     3.820881058
 C       -0.149859916    15.192170212     4.137629764
 C       -1.012070654    14.599412042     3.223148235
 N        1.334029342    17.085472478     4.734088635
 C        2.663911106    17.457446644     4.205448268
 C        1.412308221    16.516752033     6.091413568
 C        3.557197861    16.265199208     3.811275896
 C        3.586385845    16.054879190     2.283726190
 N        4.047569945    14.714259575     1.863935996
 C        3.120434734    13.681542785     2.197332813
 C        1.894995809    13.682657881     1.506383087
 C        0.946668582    12.710765639     1.777462893
 C        1.209131950    11.679053227     2.691661690
 C        2.438017613    11.669637180     3.353427208
 C        3.387709409    12.659721134     3.116258206
 C        5.447712868    14.451586669     2.239106130
 C        0.165827118    10.680062464     2.936471645
 C        0.296237228     9.651451724     3.783132480
Si       -0.978912988     8.377690529     4.122479951
 C       -1.197391977     8.205484387     5.940985551
 C       -0.576727877     9.096867041     6.825133096
 C       -0.746434478     8.960652677     8.200812515
 C       -1.549839221     7.941218667     8.727142972
 C       -2.176287096     7.058811073     7.842315831
 C       -2.005299217     7.190314140     6.465419301
 C       -1.697772058     7.838057517    10.175249470
 C       -2.434747941     6.905908575    10.802886141
 C       -2.585354627     6.799168105    12.250161604
 C       -1.962434711     7.677293810    13.140834092
 C       -2.134597899     7.537667684    14.517952042
 C       -2.929278255     6.509777575    15.034963783
 C       -3.554517934     5.627149033    14.143822692
 C       -3.386087330     5.773008255    12.769768094
Si       -3.166605778     6.311799115    16.849502540
 C       -1.924425925     7.311949826    17.817317978
 C       -4.919468115     6.883281658    17.323177543
 C       -2.998893769     4.464216834    17.277096245
 C       -2.633033490     8.972049822     3.390014343
 C       -0.404175465     6.788643462     3.250803730
 C       -3.656930866    13.229466860    -1.798600674
 C       -5.612767285    12.639428285     0.518850108
 C       -0.592358906    -0.939681318    -1.545629267
 C       -0.666608878    -0.881677204     1.549127134
 H        1.253219382     2.722735801    -0.175945660
 H        0.318977595     4.963321074    -0.166823612
 H       -3.659686906     3.350162212     0.146343914
 H       -2.764406259     1.089012065     0.184809638
 H       -3.422014379     5.676370035     0.056184186
 H       -0.533552254     6.772221536    -0.163876062
 H       -4.270553775     7.530991078     0.049122364
 H       -5.168416068     9.789449953     0.038860923
 H       -1.109314474    11.355912806    -0.149776805
 H       -0.258565140     9.076964918    -0.186347317
 H       -2.667837870    12.850818402     2.117454584
 H       -2.103082696    15.075643024    -0.000544618
 H       -0.709144556    16.809017666     0.660569526
 H        0.704135024    17.948447328     2.322551055
 H        0.020996745    14.700618450     5.091094036
 H       -1.513364013    13.669501284     3.500694603
 H        1.976674593    17.208583261     6.739924831
 H        1.891814010    15.526086564     6.139768550
 H        0.393496299    16.441362418     6.512470234
 H        6.086363737    15.221107537     1.771823126
 H        5.755998104    13.475927473     1.823498784
 H        5.640519693    14.450403292     3.322280013
 H        1.691480543    14.459104576     0.770731575
 H       -0.013300283    12.745288165     1.256479155
 H        2.665672301    10.882206941     4.072259278
 H        4.328223549    12.634341407     3.657339044
 H       -0.747415672    10.857274424     2.349563512
 H        1.229910635     9.495942704     4.347740042
 H        0.053993667     9.918900398     6.472346487
 H       -0.250820254     9.659045987     8.872038411
 H       -2.806925542     6.258396752     8.224333545
 H       -2.523276162     6.471697274     5.823071698
 H       -1.151570056     8.594222687    10.746423011
 H       -2.979926953     6.150142933    10.229882879
 H       -1.334978431     8.482865804    12.764016048
 H       -1.623046415     8.255988226    15.164490450
 H       -4.186850399     4.804857841    14.490214204
 H       -3.881292965     5.078960188    12.093432857
 H        2.513641175    18.140638077     3.339864660
 H        3.171846984    18.073257176     4.982135065
 H        4.582232133    16.417651348     4.190770968
 H        3.194286312    15.339992728     4.302219174
 H        2.566850792    16.211873809     1.858622288
 H        4.247343078    16.807090833     1.801000767
 H        2.263379123    -1.030512274     0.016679451
 H        2.264269519     0.522510113     0.888483643
 H        2.272855694     0.498977179    -0.896986067
 H       -2.045976936     7.153677795    18.903764754
 H       -2.030197694     8.393906213    17.625060750
 H       -0.891296721     7.021546777    17.553174636
 H       -4.981723707     6.779377144    18.444927503
 C       -5.175947567     8.358664455    16.965095481
 C       -6.035932890     6.024567051    16.702566780
 H       -3.815170698     3.938560136    16.701116413
 C       -1.650252697     3.874707680    16.826204037
 C       -3.205851999     4.158145731    18.771156599
 H       -2.412628168     9.242098050     2.313320544
 C       -3.750833131     7.917118853     3.382891619
 C       -3.148390591    10.236130592     4.103467900
 H       -0.611424096     6.977691894     2.155163390
 C        1.106434758     6.531184660     3.407906409
 C       -1.155394482     5.509007253     3.653867144
 H       -3.922773848    14.322598886    -1.706418822
 C       -2.230500036    13.132157735    -2.370233062
 C       -4.633684315    12.584582794    -2.798092683
 H       -6.210738129    12.016315938    -0.207863182
 C       -5.844418957    12.076305023     1.932592311
 C       -6.153865354    14.079645385     0.465415081
 H       -0.054692047    -1.931858700    -1.517586471
 C       -2.104827569    -1.222886869    -1.570197958
 C       -0.204673523    -0.223536385    -2.852538068
 H       -1.790776834    -0.877839155     1.444838222
 C       -0.207694461    -2.345644341     1.667752747
 C       -0.312906703    -0.136896277     2.849333656
 H       -4.468498408     9.051962369    17.437882116
 H       -6.176457205     8.660768704    17.306458353
 H       -5.151474472     8.545425474    15.881722669
 H       -5.976387245     4.964654790    16.980170448
 H       -6.060766580     6.085672436    15.605283773
 H       -7.017901505     6.377319059    17.050282052
 H       -1.455206847     4.009300849    15.752478701
 H       -1.632774099     2.790638824    17.007659288
 H       -0.794647871     4.293504696    17.372381814
 H       -4.182429023     4.485385772    19.150705685
 H       -2.432028242     4.602917621    19.410791112
 H       -3.158239815     3.072702334    18.941627004
 H       -3.501214421     7.033304312     2.779947141
 H       -4.660482058     8.342401832     2.933795274
 H       -4.033084324     7.578422929     4.387781206
 H       -2.424893662    11.062983023     4.109626569
 H       -3.442228903    10.046784405     5.145388775
 H       -4.045931017    10.614411722     3.593583881
 H        1.728401621     7.344378572     3.010873077
 H        1.391016174     5.626072717     2.851850879
 H        1.405571670     6.356272015     4.449919809
 H       -2.246309900     5.590485487     3.571628330
 H       -0.915926739     5.180245803     4.673763370
 H       -0.866986073     4.682311790     2.985566584
 H       -1.468098562    13.604022345    -1.735245264
 H       -2.179537531    13.641174792    -3.343039216
 H       -1.915662537    12.094257219    -2.552164434
 H       -5.687894332    12.698050752    -2.514519357
 H       -4.442948089    11.513224313    -2.953622826
 H       -4.530194898    13.058698523    -3.785089282
 H       -5.529894336    11.029193430     2.043783471
 H       -6.916177402    12.100912784     2.176635602
 H       -5.339468200    12.663505767     2.712979900
 H       -6.111631244    14.525394375    -0.536614708
 H       -5.632407664    14.759011293     1.155014360
 H       -7.212592216    14.095458796     0.762044909
 H       -2.458880711    -1.783469597    -0.695909857
 H       -2.356480090    -1.835313960    -2.448590524
 H       -2.708562311    -0.308760044    -1.653924869
 H        0.875464185    -0.057613979    -2.956129777
 H       -0.702458662     0.749775505    -2.970088124
 H       -0.506470861    -0.829955821    -3.718519236
 H       -0.486085627    -2.960583829     0.802206290
 H       -0.678383640    -2.816694073     2.543057187
 H        0.876353998    -2.443940691     1.813001184
 H       -0.665246878     0.904508921     2.862230607
 H        0.765050621    -0.124804559     3.058245942
 H       -0.788462446    -0.631993548     3.708059741

