187   

Si        0.000000000     0.000000000     0.000000000
 C        1.865062185     0.000000000     0.000000000
 C       -0.676985700     1.712357411     0.000000000
 C        0.077161734     2.777901724    -0.502725294
 C       -0.437564309     4.074091100    -0.501752856
 C       -1.717677667     4.334208264    -0.005404767
 C       -2.474476660     3.264721374     0.491386887
 C       -1.963633907     1.969635409     0.491349263
 C       -2.297772139     5.672867032     0.016048871
 C       -1.682378210     6.781818752    -0.428235785
 C       -2.264638524     8.119723599    -0.405743360
 C       -3.546117562     8.374261685     0.092110385
 C       -4.064854790     9.668006935     0.095181326
 C       -3.308137651    10.737391689    -0.396634131
 C       -2.025135707    10.486544937    -0.897470808
 C       -1.512865527     9.191282240    -0.904607914
Si       -3.994150192    12.443157814    -0.391721014
 C       -2.649037211    13.664655690    -0.599061587
 C       -2.638648351    14.669226512    -1.484273134
 C       -1.542295760    15.630733823    -1.622998415
 C       -1.652674000    16.640670243    -2.591736687
 C       -0.645274918    17.574890137    -2.764246813
 C        0.496943712    17.546125416    -1.937872049
 C        0.612938534    16.536633577    -0.971366708
 C       -0.389286798    15.581171045    -0.836556169
 N        1.488711199    18.532336083    -2.170156692
 C        1.041863674    19.927066716    -1.978591593
 C        2.820294446    18.253588908    -1.612192528
 C        1.177540725    20.502111124    -0.557791046
 C        0.281692052    19.826787206     0.497618032
 N       -1.144637362    20.182225881     0.445728556
 C       -1.490953816    21.537166534     0.413968362
 C       -0.706520158    22.477919218     1.119154792
 C       -1.037349512    23.822588206     1.096761776
 C       -2.178180369    24.279925251     0.421522411
 C       -2.969243765    23.343563244    -0.250244457
 C       -2.643723064    21.994271041    -0.255490551
 C       -1.986204821    19.243694864    -0.306110251
 C       -2.482271893    25.711632824     0.428942195
 C       -3.543257000    26.254661787    -0.182197165
Si       -3.978566075    28.028435327    -0.211026507
 C       -4.306109955    28.552747296    -1.944029599
 C       -3.752452792    27.834571573    -3.011268681
 C       -3.996152697    28.225709431    -4.325345366
 C       -4.788121418    29.347108493    -4.604669918
 C       -5.333779356    30.065256156    -3.536684565
 C       -5.095311594    29.674307288    -2.219834540
 C       -5.014297762    29.716640250    -5.998052200
 C       -5.754206260    30.762951293    -6.402533052
 C       -5.979763778    31.131635228    -7.796273699
 C       -5.434299637    30.413736079    -8.863712499
 C       -5.675710044    30.801530750   -10.181622008
 C       -6.477422272    31.912705799   -10.460610473
 C       -7.027470128    32.633336079    -9.391811753
 C       -6.778828478    32.248054308    -8.077489428
Si       -6.805338252    32.437033823   -12.194487408
 C       -6.314925085    31.114357256   -13.415192216
 C       -8.660887131    32.828683880   -12.360558670
 C       -5.817616595    34.018948969   -12.575325000
 C       -5.544565907    28.284759081     0.839606745
 C       -2.580722514    29.099454865     0.506438818
 C       -5.282795119    12.602062128    -1.781185284
 C       -4.848116166    12.775026582     1.276090348
 C       -0.627358698    -0.907190922    -1.551095028
 C       -0.646967458    -0.922857744     1.534521056
 H        1.084654606     2.636770424    -0.903763999
 H        0.171343470     4.886516417    -0.894219899
 H       -3.474433510     3.445082446     0.881339650
 H       -2.601658442     1.175863928     0.889655597
 H       -3.307900751     5.726242553     0.432875414
 H       -0.672632564     6.728916853    -0.845573826
 H       -4.151631181     7.558931489     0.483358587
 H       -5.072822734     9.805454114     0.496460606
 H       -1.392494039    11.284949470    -1.298361154
 H       -0.515178283     9.013190475    -1.301561263
 H       -1.810368794    13.513914490     0.101143201
 H       -3.461758868    14.849848011    -2.188121410
 H       -2.536046117    16.683148457    -3.229682177
 H       -0.721506276    18.326788077    -3.547533036
 H        1.485400820    16.484979611    -0.326928373
 H       -0.272246751    14.794040703    -0.090032911
 H        3.532525991    19.003081373    -2.000084994
 H        3.161627656    17.265618889    -1.970586498
 H        2.867204210    18.263832319    -0.512203636
 H       -1.636093542    18.206375089    -0.148625779
 H       -1.998624671    19.433658248    -1.392070476
 H       -3.021082705    19.291256319     0.080120236
 H        0.159453817    22.149104483     1.685221020
 H       -0.405905287    24.533963875     1.630051100
 H       -3.862890970    23.672202100    -0.783989877
 H       -3.282499263    21.302848914    -0.794912244
 H       -1.748622217    26.307011497     0.987696594
 H       -4.266670995    25.625037419    -0.727083350
 H       -3.123389316    26.952506341    -2.851705002
 H       -3.562690236    27.652758891    -5.142788954
 H       -5.952745616    30.939914257    -3.726845997
 H       -5.549468738    30.273902608    -1.426301446
 H       -4.526111639    29.064956383    -6.728759100
 H       -6.242628884    31.414594178    -5.672249478
 H       -4.811230410    29.541698134    -8.673733038
 H       -5.219817589    30.201781967   -10.974189607
 H       -7.662591542    33.509576440    -9.549500090
 H       -7.213156625    32.821259223    -7.260624971
 H        1.649237261    20.548573857    -2.680613646
 H       -0.013825319    20.024033715    -2.317600883
 H        2.230560597    20.444768252    -0.224367047
 H        0.947307641    21.588176637    -0.601328367
 H        0.378097777    18.719095288     0.425312839
 H        0.651112938    20.094312624     1.517636643
 H        2.262448124    -1.029577658     0.048989505
 H        2.259371632     0.550723687     0.873583026
 H        2.277012465     0.472513191    -0.908623269
 H       -6.553082043    31.420291398   -14.449606754
 H       -6.855387560    30.171297275   -13.215400670
 H       -5.233041079    30.898539441   -13.373114849
 H       -8.867579173    33.664143779   -11.630053682
 C       -9.061988071    33.319343425   -13.763008099
 C       -9.551533976    31.634282451   -11.973286172
 H       -6.026195712    34.255184347   -13.658780550
 C       -6.248660202    35.232443821   -11.732136947
 C       -4.299443219    33.820414729   -12.413449640
 H       -5.759451949    29.392049520     0.814565449
 C       -6.767803399    27.550141079     0.262677473
 C       -5.356390187    27.869273494     2.309202541
 H       -2.352463969    28.670674468     1.525033742
 C       -1.297048924    29.032635737    -0.341410204
 C       -2.975859678    30.575797231     0.688517327
 H       -5.587438252    13.688568270    -1.798282565
 C       -4.702256675    12.243666186    -3.161499756
 C       -6.547910876    11.758478132    -1.544213388
 H       -5.691546017    12.028827628     1.347383016
 C       -3.909619844    12.546438706     2.474187326
 C       -5.450927954    14.187422071     1.371837194
 H       -0.155407278    -1.931451523    -1.521194613
 C       -2.156047824    -1.085391329    -1.574428977
 C       -0.190067435    -0.218355738    -2.856788056
 H       -1.771959994    -0.929646518     1.441664440
 C       -0.174587667    -2.385667764     1.614426724
 C       -0.285702409    -0.207680528     2.848980242
 H       -8.515904085    34.216153458   -14.082991149
 H      -10.128268739    33.588546891   -13.775347651
 H       -8.930647513    32.553294728   -14.538660072
 H       -9.358356166    31.259991467   -10.957666602
 H       -9.454412491    30.784872682   -12.662307258
 H      -10.610015260    31.930456713   -11.994786819
 H       -7.306090617    35.497262550   -11.857793782
 H       -5.673038361    36.120596542   -12.031315760
 H       -6.060025257    35.094385457   -10.658077620
 H       -3.893595184    33.020690940   -13.046180977
 H       -4.005091005    33.605463216   -11.376013969
 H       -3.766736911    34.738552924   -12.700065597
 H       -6.990820100    27.825142236    -0.777839580
 H       -7.666272546    27.799280875     0.844932165
 H       -6.668306451    26.456633480     0.303007279
 H       -4.552865583    28.417549636     2.817542226
 H       -5.152146427    26.795178134     2.427358251
 H       -6.274854508    28.071690484     2.878363060
 H       -0.919434222    28.011414268    -0.487496712
 H       -0.489976609    29.593505141     0.150323758
 H       -1.421286191    29.481644887    -1.337511020
 H       -3.825917496    30.718914918     1.367641638
 H       -3.215606824    31.075187477    -0.260869041
 H       -2.137498787    31.137833211     1.125260644
 H       -3.813101909    12.829335254    -3.431881417
 H       -5.448049840    12.434244628    -3.946013542
 H       -4.431770421    11.180956849    -3.246272338
 H       -7.080774977    12.020517534    -0.621363603
 H       -6.344980004    10.678425515    -1.521953054
 H       -7.262958984    11.916279270    -2.364993588
 H       -3.470609396    11.538878372     2.497658090
 H       -4.466684180    12.659239167     3.415385974
 H       -3.084114154    13.269946760     2.516834729
 H       -6.197727151    14.396132675     0.595052616
 H       -4.691770293    14.981571861     1.326104295
 H       -5.967281662    14.311550418     2.334673765
 H       -2.540205402    -1.663308811    -0.724326246
 H       -2.456593218    -1.634625786    -2.478589589
 H       -2.697675941    -0.129139608    -1.603640504
 H        0.898797813    -0.124715508    -2.957403720
 H       -0.624022147     0.784865756    -2.976404567
 H       -0.528737903    -0.804353600    -3.723292043
 H       -0.458315149    -2.982925261     0.738288657
 H       -0.631704523    -2.880336892     2.483833937
 H        0.911665943    -2.478820343     1.745235865
 H       -0.636796303     0.833376294     2.888501200
 H        0.793909853    -0.199325076     3.049993918
 H       -0.754318066    -0.722523258     3.699766822

