187   

Si        0.000000000     0.000000000     0.000000000
 C        1.865691919     0.000000000     0.000000000
 C       -0.677048181     1.710578990     0.000000000
 C        0.152620697     2.819642773    -0.191552243
 C       -0.376434171     4.110058507    -0.188787975
 C       -1.745374173     4.320876295    -0.003388419
 C       -2.575194007     3.207889266     0.184570855
 C       -2.050195536     1.918987377     0.187049684
 C       -2.339696245     5.652848252     0.006419976
 C       -1.648782221     6.793257129    -0.158197563
 C       -2.234436302     8.128575383    -0.149829838
 C       -1.389651102     9.230747132    -0.334458043
 C       -1.900116791    10.525730308    -0.334634744
 C       -3.264518381    10.749708266    -0.110123065
 C       -4.109041651     9.650952956     0.079554548
 C       -3.599381152     8.353747148     0.045424376
Si       -3.924610755    12.463933842    -0.113107773
 C       -5.528809619    12.642747262     0.740573459
 C       -5.961864757    11.903758489     1.771351983
 C       -7.263843372    12.099515683     2.412734048
 C       -7.637136447    11.279221906     3.487592428
 C       -8.861953850    11.438555061     4.116197827
 C       -9.738663358    12.473438061     3.726989697
 C       -9.362442179    13.298790291     2.651775168
 C       -8.155609444    13.090980953     1.996867665
 N      -10.982995574    12.627677253     4.372566143
 C      -11.024297510    12.325754423     5.814736195
 C      -11.766671545    13.825770556     4.025005634
 C      -10.004288828    13.123997779     6.645401246
 C      -10.181228907    12.917273829     8.159556146
 N      -10.181625468    11.515409478     8.629029185
 C       -9.234940607    10.671175781     7.994597336
 C       -7.874992935    11.032026155     8.069944037
 C       -6.910329492    10.240875917     7.466802665
 C       -7.263770732     9.074188236     6.771908232
 C       -8.611980974     8.713640710     6.715849671
 C       -9.589734539     9.486710719     7.331526057
 C      -11.533025256    10.957763059     8.803455680
 C       -6.211939535     8.266574286     6.148866255
 C       -6.455333615     7.139717540     5.466962949
Si       -5.206848664     6.077348410     4.662190356
 C       -3.719595935     6.978515200     4.072354429
 C       -3.768413525     8.346810086     3.788842400
 C       -2.629319110     9.014749664     3.341908941
 C       -1.421560865     8.332485505     3.171700662
 C       -1.377367805     6.960369274     3.449861936
 C       -2.514618322     6.287943151     3.887706192
 C       -0.204926225     8.989816600     2.706590224
 C       -0.118900483    10.296530789     2.407340853
 C        1.086285384    10.971278832     1.941618578
 C        2.300468385    10.303935204     1.757147573
 C        3.427474740    10.991121918     1.309756053
 C        3.359857188    12.359361639     1.020441063
 C        2.142934355    13.027792456     1.198260677
 C        1.021361844    12.340565235     1.655090896
Si        4.856675698    13.252122498     0.430711544
 C        4.435753908    14.957805763    -0.197232694
 C        6.106075721    13.418532959     1.856980764
 C        5.648633518    12.216561421    -0.956465198
 C       -4.694292825     4.698006700     5.865330371
 C       -6.042682913     5.297443014     3.139136690
 C       -2.682848077    13.618750221     0.758635116
 C       -4.135687690    13.016535709    -1.920306873
 C       -0.602424093    -0.934141057    -1.545234639
 C       -0.665802487    -0.887810042     1.546764979
 H        1.230046509     2.717123912    -0.345063782
 H        0.291771031     4.956735809    -0.335840748
 H       -3.645970840     3.348093387     0.321990241
 H       -2.746675885     1.090160383     0.341185689
 H       -3.421999765     5.675149653     0.163606951
 H       -0.565383095     6.771590086    -0.310931769
 H       -0.321804687     9.077900457    -0.482190785
 H       -1.191003316    11.342773454    -0.498184971
 H       -5.184623707     9.766543950     0.248215120
 H       -4.275468102     7.511943310     0.185287693
 H       -6.147667647    13.458880894     0.333578551
 H       -5.373365500    11.088786916     2.214511040
 H       -6.963497420    10.490343973     3.830120768
 H       -9.135247474    10.761377163     4.924471412
 H      -10.007230755    14.102220211     2.312535829
 H       -7.901052530    13.733695485     1.152836250
 H      -12.730684102    13.808330166     4.560413578
 H      -12.004929215    13.803165611     2.945851279
 H      -11.254797107    14.772524920     4.259961247
 H      -12.101188980    11.609993328     9.489619700
 H      -11.457960544     9.970691804     9.294908673
 H      -12.108338796    10.845682634     7.872254947
 H       -7.587847202    11.931854557     8.608563258
 H       -5.861625727    10.533290058     7.532501927
 H       -8.914302194     7.809801411     6.184640641
 H      -10.626381680     9.169617689     7.272701285
 H       -5.202566710     8.674535591     6.290027405
 H       -7.484547617     6.758159248     5.358642099
 H       -4.687768225     8.930827641     3.898663172
 H       -2.693420302    10.078058487     3.114392950
 H       -0.449410234     6.408463206     3.312775790
 H       -2.421606205     5.214561466     4.075891658
 H        0.665089997     8.334563517     2.612991412
 H       -0.998419133    10.943761944     2.497826667
 H        2.375970811     9.238964698     1.968185108
 H        4.351187130    10.418300895     1.190275859
 H        2.031649110    14.094547906     0.986768429
 H        0.082676651    12.877336810     1.790196143
 H      -12.055708601    12.509082676     6.187206178
 H      -10.844681985    11.230000415     5.931104494
 H       -8.975533647    12.832899061     6.343901807
 H      -10.082890442    14.201628441     6.411327861
 H       -9.345449836    13.430626967     8.694909183
 H      -11.115049445    13.412868906     8.503288349
 H        2.263829278    -1.029710620     0.037597185
 H        2.262567932     0.541017054     0.877948455
 H        2.273225523     0.481479999    -0.906253935
 H        5.333143725    15.470675316    -0.587093810
 H        4.008948795    15.593098477     0.598448471
 H        3.699703550    14.906199144    -1.019826167
 H        6.960688587    14.027922270     1.442862291
 C        5.522088330    14.173750749     3.065181795
 C        6.673204951    12.073307033     2.344305791
 H        5.924050636    11.228717285    -0.484489109
 C        4.668638353    11.929927103    -2.108729153
 C        6.932914844    12.838622310    -1.532382303
 H       -4.022634082     4.005059366     5.279772153
 C       -3.894087203     5.238025527     7.063801033
 C       -5.884968228     3.874277558     6.386820851
 H       -6.968431726     4.778262165     3.518480937
 C       -6.473899791     6.361918328     2.114236294
 C       -5.159539809     4.250291815     2.441098088
 H       -1.671878449    13.384330175     0.316241047
 C       -2.965843843    15.112709259     0.520842171
 C       -2.621795953    13.362473368     2.275320818
 H       -4.526028381    14.073867173    -1.881869166
 C       -2.814416606    13.022362142    -2.708766395
 C       -5.164919194    12.155045962    -2.673645454
 H       -0.087379267    -1.937689223    -1.511939917
 C       -2.121403942    -1.180843645    -1.572251098
 C       -0.194968173    -0.231217762    -2.853317724
 H       -1.788880568    -0.903720091     1.432649885
 C       -0.184100461    -2.343618155     1.675661523
 C       -0.337207559    -0.132073779     2.847353677
 H        5.167303626    15.182881900     2.819375472
 H        6.292703357    14.299192809     3.839383899
 H        4.690484635    13.636244657     3.543299259
 H        7.179019179    11.501801765     1.555934867
 H        5.907410585    11.425350979     2.793481498
 H        7.425268876    12.245400702     3.128276934
 H        3.745222402    11.432060289    -1.779431781
 H        5.135555168    11.257089621    -2.842087735
 H        4.378232134    12.833882111    -2.660238025
 H        7.709583970    13.011093000    -0.776065785
 H        6.752701419    13.790146131    -2.049951192
 H        7.375308676    12.162430350    -2.278404324
 H       -2.988663649     5.788055668     6.770128416
 H       -3.556328154     4.406557674     7.698269466
 H       -4.486976958     5.899197441     7.711731575
 H       -6.467913446     3.397157375     5.588974970
 H       -6.577748236     4.466282840     7.001066261
 H       -5.524149437     3.059778655     7.031530387
 H       -7.177602268     7.100373919     2.524170906
 H       -6.987176350     5.886200268     1.267201416
 H       -5.623479750     6.917019626     1.690818755
 H       -4.924314646     3.387310883     3.077549288
 H       -4.205539283     4.667197639     2.082248474
 H       -5.678774500     3.848401065     1.559303220
 H       -2.939275912    15.397627194    -0.538580555
 H       -2.201299360    15.724564035     1.021114853
 H       -3.932400940    15.436689909     0.929671665
 H       -2.383223878    12.321856146     2.534974728
 H       -3.561727361    13.618047635     2.787067392
 H       -1.843495901    13.987253460     2.735553540
 H       -2.048465432    13.676664917    -2.272865956
 H       -2.987358607    13.389005645    -3.730594912
 H       -2.376586577    12.018776523    -2.814836589
 H       -6.156660373    12.146313537    -2.201087195
 H       -4.844200398    11.109256145    -2.787986930
 H       -5.310976282    12.544137511    -3.691039582
 H       -2.487782017    -1.743879353    -0.704720590
 H       -2.388493609    -1.775629064    -2.458047283
 H       -2.703119976    -0.251082083    -1.642873929
 H        0.888789738    -0.089413420    -2.953736246
 H       -0.671322544     0.752312332    -2.975538138
 H       -0.507262727    -0.833834473    -3.718168894
 H       -0.443230044    -2.965622724     0.809154617
 H       -0.656126766    -2.819479618     2.547498128
 H        0.899847924    -2.423244582     1.832323958
 H       -0.707729717     0.903319904     2.852007728
 H        0.738451443    -0.099673444     3.064993096
 H       -0.811022874    -0.632331207     3.703848788

