187   

Si        0.000000000     0.000000000     0.000000000
 C        1.865176109     0.000000000     0.000000000
 C       -0.679004966     1.711102224     0.000000000
 C        0.114360866     2.801531986     0.370855309
 C       -0.409863709     4.094055478     0.367430899
 C       -1.737875851     4.325497273    -0.000370086
 C       -2.532913040     3.231267094    -0.366935432
 C       -2.012408836     1.940137505    -0.365310304
 C       -2.329640048     5.659102482    -0.019040667
 C       -1.680964501     6.789887121     0.307412722
 C       -2.275621652     8.122382692     0.287750455
 C       -1.483356814     9.219239442     0.652920953
 C       -2.007564559    10.509167132     0.649195191
 C       -3.342062912    10.730925482     0.286583926
 C       -4.135112706     9.638229259    -0.078712883
 C       -3.604313440     8.348782473    -0.081449000
Si       -4.041970715    12.432252197     0.279193449
 C       -5.867394512    12.349154250     0.300098085
 C       -6.693523280    13.002312435    -0.527356949
 C       -8.153346203    12.905085394    -0.473356287
 C       -8.916410055    13.637771617    -1.394409592
 C      -10.300285033    13.579846175    -1.384706756
 C      -10.976291300    12.811835539    -0.412578895
 C      -10.212312256    12.075982073     0.511013148
 C       -8.824321365    12.110582053     0.459685681
 N      -12.385789316    12.771017125    -0.426471346
 C      -13.069668842    14.052103133    -0.691337854
 C      -13.034897248    11.990853350     0.641223776
 C      -12.698801210    15.156514089     0.315335078
 C      -13.752630870    16.272529235     0.405485302
 N      -15.106940464    15.852380631     0.834688734
 C      -15.146458992    14.810110630     1.788127207
 C      -14.391113807    14.964770252     2.970267595
 C      -14.396283137    13.972495969     3.935285943
 C      -15.171839996    12.813300683     3.777245857
 C      -15.939049258    12.677425420     2.618754724
 C      -15.941539909    13.662989463     1.637466222
 C      -16.069837562    15.767098094    -0.275145660
 C      -15.140914569    11.794370519     4.828712149
 C      -15.838666959    10.652379738     4.783754163
Si      -15.841380737     9.345554268     6.061522519
 C      -17.572063018     8.901671258     6.495008886
 C      -18.616149592     9.797819677     6.243191942
 C      -19.929529278     9.463279334     6.571135643
 C      -20.226332626     8.233894068     7.165881422
 C      -19.177257259     7.340823792     7.422631560
 C      -17.865030704     7.669507222     7.092736945
 C      -21.584758573     7.841194116     7.526139396
 C      -22.677184911     8.600305607     7.335184359
 C      -24.035341506     8.207040101     7.695658617
 C      -24.332201870     6.976161842     8.286422884
 C      -25.645641112     6.640799810     8.614925923
 C      -26.691906733     7.534101540     8.364708273
 C      -26.396740053     8.769700414     7.772544463
 C      -25.085637704     9.099208954     7.440579255
Si      -28.430784272     7.107127824     8.792111153
 C      -28.518830998     5.598925013     9.886189341
 C      -29.213040572     8.604129306     9.670167521
 C      -29.410475144     6.761248030     7.197165286
 C      -14.947294248     7.822090926     5.353432149
 C      -14.931827686     9.912391137     7.632098832
 C       -3.458437013    13.358151160     1.836090843
 C       -3.413032250    13.359678793    -1.257429057
 C       -0.651759155    -0.909814683    -1.540241355
 C       -0.620112963    -0.918594626     1.547283135
 H        1.160217738     2.683019074     0.667195725
 H        0.229608484     4.926078721     0.656630362
 H       -3.570094036     3.389440663    -0.656499339
 H       -2.680822365     1.126438912    -0.660455080
 H       -3.378818616     5.689111011    -0.327990127
 H       -0.632029987     6.761013185     0.616149646
 H       -0.445872969     9.064046542     0.942067043
 H       -1.342211198    11.326172947     0.941153444
 H       -5.183089247     9.754581335    -0.374473768
 H       -4.239936198     7.514819932    -0.373543695
 H       -6.262163165    11.694537094     1.095177226
 H       -6.333936407    13.666973228    -1.323648007
 H       -8.415041468    14.255212143    -2.139879882
 H      -10.864436649    14.129112622    -2.132944375
 H      -10.693454946    11.471470963     1.273924732
 H       -8.255199844    11.517429421     1.177440408
 H      -14.128558811    11.985382984     0.485886252
 H      -12.846566554    12.378858763     1.656402154
 H      -12.696773745    10.941148808     0.584367184
 H      -16.072272864    16.727669102    -0.820447343
 H      -17.088083298    15.634618955     0.133309075
 H      -15.867933339    14.958691623    -0.995005775
 H      -13.809140291    15.871234310     3.120775282
 H      -13.796972398    14.102145242     4.837280729
 H      -16.555438115    11.788364594     2.474385200
 H      -16.551129728    13.520787720     0.750782584
 H      -14.487291764    12.060331612     5.669656053
 H      -16.482268924    10.413106675     3.920199650
 H      -18.442893370    10.776844755     5.784415300
 H      -20.726099426    10.174659691     6.360718755
 H      -19.387486467     6.378383689     7.885140671
 H      -17.088175595     6.932949053     7.315300611
 H      -21.668776012     6.849746309     7.980769514
 H      -22.593531371     9.592009962     6.880672989
 H      -23.535746495     6.264369198     8.495564264
 H      -25.815512087     5.662865227     9.073843941
 H      -27.173535089     9.508004805     7.554138406
 H      -24.876699710    10.062838697     6.979679314
 H      -12.829797955    14.371831725    -1.729408758
 H      -14.166187636    13.860558351    -0.678218932
 H      -12.537593184    14.706496388     1.316369941
 H      -11.719224683    15.596666883     0.044024805
 H      -13.411091446    17.035463406     1.147320985
 H      -13.824737845    16.802276404    -0.568982501
 H        2.263124233    -1.029442424    -0.046556945
 H        2.276178935     0.474313209     0.908254445
 H        2.260039197     0.548411087    -0.874681808
 H      -29.561897632     5.376146156    10.173878418
 H      -27.943521777     5.750955369    10.817583038
 H      -28.114757115     4.703323044     9.382598697
 H      -29.164137734     9.455800456     8.930785605
 C      -30.689963356     8.392101542    10.047307177
 C      -28.429544603     9.025694956    10.926481901
 H      -30.440788588     6.449297379     7.535512453
 C      -29.561370936     7.991010375     6.284113292
 C      -28.808566391     5.607522432     6.374055710
 H      -14.931459019     7.057284072     6.182835030
 C      -15.689595966     7.206942178     4.153875708
 C      -13.492345162     8.115055533     4.946714525
 H      -13.915878858    10.266465251     7.291549127
 C      -15.642162808    11.087312852     8.328866428
 C      -14.723387623     8.783358720     8.657037622
 H       -2.333615705    13.409402568     1.764080497
 C       -3.996835957    14.797304128     1.917863483
 C       -3.817522301    12.612538340     3.133775246
 H       -3.955313516    14.349273847    -1.264621272
 C       -1.901241093    13.646513020    -1.224916098
 C       -3.746661521    12.619059927    -2.565457932
 H       -1.776237481    -0.920010802    -1.441320330
 C       -0.300928640    -0.179325604    -2.849073783
 C       -0.175498749    -2.370121129    -1.637996253
 H       -0.137210398    -1.937693912     1.512124467
 C       -0.188973320    -0.230802103     2.855635334
 C       -2.146601516    -1.114668489     1.572789868
 H      -31.329539367     8.159178439     9.186215463
 H      -31.098607548     9.310420545    10.493741215
 H      -30.832024042     7.599288807    10.793646788
 H      -27.372700264     9.250847758    10.723315034
 H      -28.459559575     8.271817100    11.724278895
 H      -28.862433126     9.942747738    11.350948517
 H      -30.060465208     8.837840851     6.771844458
 H      -30.177194057     7.735302057     5.409480548
 H      -28.600686037     8.347781333     5.886781075
 H      -28.741481837     4.663218934     6.929462089
 H      -27.805561352     5.837595260     5.986615890
 H      -29.437694921     5.402928156     5.495944940
 H      -16.731424545     6.936980626     4.377622153
 H      -15.193442073     6.277249899     3.840555530
 H      -15.698337852     7.863482595     3.273097361
 H      -12.873125267     8.478470980     5.777014633
 H      -13.415174711     8.845590060     4.128570203
 H      -13.010752880     7.195263363     4.584937268
 H      -15.797015936    11.957794678     7.676969171
 H      -15.041834050    11.440679152     9.179092332
 H      -16.623152456    10.807803865     8.740088869
 H      -14.133245657     7.944081891     8.267710851
 H      -15.668327736     8.379021086     9.046809796
 H      -14.172865301     9.165280365     9.529335547
 H       -3.706063831    15.420152537     1.062189893
 H       -3.599137352    15.297969478     2.812141346
 H       -5.092189165    14.839906657     2.003120792
 H       -3.429090197    11.584762007     3.167061232
 H       -4.900165153    12.564505619     3.314220845
 H       -3.383287441    13.132393188     3.999514866
 H       -1.591462365    14.257434271    -0.367624325
 H       -1.606664616    14.208337797    -2.123330985
 H       -1.292174173    12.731556305    -1.225014731
 H       -4.817774600    12.409586437    -2.691770777
 H       -3.213122738    11.662128606    -2.660515622
 H       -3.446150866    13.226030631    -3.430853213
 H       -0.659377269     0.859755256    -2.875793708
 H       -0.770734322    -0.688122974    -3.702791693
 H        0.777496726    -0.161957104    -3.055207316
 H       -0.454850694    -2.977894986    -0.767738233
 H        0.910625899    -2.458389271    -1.773126268
 H       -0.633641663    -2.856264226    -2.511622886
 H        0.898853837    -0.124487164     2.955130938
 H       -0.519637444    -0.824652709     3.719824187
 H       -0.634102883     0.766924139     2.980068372
 H       -2.527093663    -1.683936203     0.715326416
 H       -2.698311776    -0.164984095     1.619004837
 H       -2.437561350    -1.681072033     2.469455089

