187   

Si        0.000000000     0.000000000     0.000000000
 C        1.865337104     0.000000000     0.000000000
 C       -0.679173234     1.710838138     0.000000000
 C        0.127594528     2.808495661     0.315922672
 C       -0.398684268     4.100214044     0.312492992
 C       -1.742229393     4.323706683     0.000683094
 C       -2.550420584     3.222175211    -0.311435379
 C       -2.027625180     1.932049111    -0.311352252
 C       -2.336199828     5.656314903    -0.015535530
 C       -1.674826995     6.793134475     0.260870574
 C       -2.270545279     8.125127940     0.244157044
 C       -1.463730111     9.228275831     0.553383043
 C       -1.988585065    10.518198496     0.550130133
 C       -3.338703675    10.732529471     0.249103802
 C       -4.147312059     9.632837383    -0.059331864
 C       -3.615586413     8.344258007    -0.066429871
Si       -4.055248356    12.427561225     0.238439547
 C       -5.856167548    12.304142884     0.521911945
 C       -6.820115076    12.880354618    -0.206706683
 C       -8.249653737    12.733748203     0.084977338
 C       -9.180670278    13.380094656    -0.741863591
 C      -10.541957109    13.268753530    -0.502848929
 C      -11.002349984    12.488013419     0.569814380
 C      -10.082135337    11.839985932     1.400355970
 C       -8.718431332    11.972954805     1.158665120
 N      -12.424190610    12.424926131     0.748443846
 C      -13.048783418    11.451242549    -0.173095912
 C      -12.855092060    12.249800933     2.147162183
 C      -12.727476884     9.974607697     0.135736835
 C      -12.892359841     9.075027072    -1.103783715
 N      -11.629980696     8.740372004    -1.794812932
 C      -10.950273042     9.822079044    -2.401195293
 C      -11.683732826    10.701452697    -3.224704028
 C      -11.054471947    11.772863843    -3.836618266
 C       -9.670319803    11.962854309    -3.717239010
 C       -8.939515269    11.065849001    -2.933723858
 C       -9.562463891    10.006985830    -2.284275412
 C      -10.799247898     7.800101504    -1.022395271
 C       -9.057509269    13.112313752    -4.384883600
 C       -7.748919431    13.392049833    -4.339731285
Si       -6.928202396    14.808875539    -5.150965626
 C       -5.890871465    15.622098001    -3.865851621
 C       -6.440609760    15.825690501    -2.592182004
 C       -5.692379416    16.436417354    -1.590842876
 C       -4.383871640    16.872189124    -1.840836198
 C       -3.841110270    16.673076167    -3.112780415
 C       -4.585639537    16.052580280    -4.116264016
 C       -3.641493714    17.506418692    -0.757823949
 C       -2.381124945    17.962043747    -0.853144895
 C       -1.648458916    18.595195649     0.238177991
 C       -2.204742801    18.787579729     1.505414327
 C       -1.469783204    19.397527154     2.521731440
 C       -0.156682091    19.820842245     2.293899991
 C        0.404366825    19.626498739     1.024268098
 C       -0.333767801    19.022940116     0.010087729
Si        0.827787773    20.627651895     3.623942744
 C       -0.011555236    20.481133205     5.283227877
 C        2.539701502    19.797128691     3.675737746
 C        1.057812594    22.473314829     3.219741635
 C       -5.892876348    14.189539821    -6.618738399
 C       -8.196023659    16.068013527    -5.802297494
 C       -3.276855948    13.468572751     1.625047716
 C       -3.685445972    13.239016074    -1.436907670
 C       -0.653916683    -0.904940817    -1.542057929
 C       -0.615882104    -0.922445868     1.546834320
 H        1.185616755     2.696763915     0.568474086
 H        0.251552936     4.938035220     0.557701126
 H       -3.599531514     3.374077308    -0.557654295
 H       -2.706120508     1.112523943    -0.564241575
 H       -3.397931473     5.680309997    -0.277697997
 H       -0.612965311     6.769954377     0.522797117
 H       -0.413781150     9.078563412     0.797142113
 H       -1.311155391    11.341641756     0.792823518
 H       -5.209017285     9.743146107    -0.305609108
 H       -4.262065393     7.504779206    -0.314575634
 H       -6.104844657    11.687250129     1.402857489
 H       -6.613723821    13.506665905    -1.085660963
 H       -8.835668464    13.970120127    -1.593036060
 H      -11.262229393    13.777462907    -1.141663374
 H      -10.423079708    11.234972823     2.234798250
 H       -8.014399676    11.464721937     1.818314802
 H      -13.942752061    12.430681121     2.199425211
 H      -12.363870635    13.014323775     2.774254900
 H      -12.646589390    11.259008614     2.576183930
 H      -11.422416100     6.955316120    -0.683522491
 H      -10.313039896     8.248799185    -0.141092525
 H      -10.020473351     7.378984757    -1.684011189
 H      -12.747152829    10.539959832    -3.379368272
 H      -11.644795290    12.462610880    -4.440007846
 H       -7.861610719    11.196454355    -2.812556684
 H       -8.961429084     9.347856817    -1.664908118
 H       -9.780460909    13.729597494    -4.933422851
 H       -7.046701008    12.742988679    -3.788106062
 H       -7.461018825    15.513248878    -2.343339241
 H       -6.130579550    16.575569184    -0.603333782
 H       -2.827346361    17.002168513    -3.331713023
 H       -4.108697341    15.923951260    -5.091084610
 H       -4.199692633    17.609105723     0.178804783
 H       -1.823711914    17.871530308    -1.789492239
 H       -3.223640875    18.463448854     1.710602333
 H       -1.959594524    19.523603461     3.491347058
 H        1.426721713    19.935873294     0.788974970
 H        0.118637379    18.882541238    -0.969729937
 H      -14.146918878    11.621513378    -0.146131458
 H      -12.712639105    11.710714060    -1.204819542
 H      -11.691403087     9.894503079     0.521230823
 H      -13.375587834     9.613145957     0.952949507
 H      -13.376712599     8.114298143    -0.813867680
 H      -13.584239535     9.541001834    -1.840204706
 H        2.263307483    -1.029550189    -0.043317515
 H        2.275447652     0.476978263     0.907334653
 H        2.260699774     0.545704445    -0.876068481
 H        0.603883183    20.932780124     6.081882320
 H       -0.177210665    19.421920733     5.551702961
 H       -0.992002638    20.988940276     5.291973433
 H        2.997221016    19.968847528     2.658066472
 C        3.485684530    20.404397684     4.726782855
 C        2.449498891    18.276703108     3.899990044
 H        1.602577893    22.912388166     4.105215458
 C        1.907161188    22.732423577     1.962691961
 C       -0.283539460    23.214311975     3.069231630
 H       -5.378499255    15.100858255    -7.041807332
 C       -4.808198754    13.175138839    -6.216081149
 C       -6.755967809    13.571905270    -7.734271276
 H       -8.869478375    15.494221592    -6.502867690
 C       -9.070053900    16.671840035    -4.687674808
 C       -7.549184186    17.215777438    -6.597851707
 H       -2.173963255    13.520612054     1.389284232
 C       -3.818490340    14.906898029     1.673197553
 C       -3.436312989    12.823398870     3.013322216
 H       -4.311922673    14.181128007    -1.477218838
 C       -2.213586526    13.648985772    -1.614877859
 C       -4.099236664    12.337790458    -2.613698608
 H       -1.778584134    -0.909017199    -1.444917100
 C       -0.297268483    -0.174474974    -2.849373221
 C       -0.185144507    -2.367559233    -1.640795844
 H       -0.124710886    -1.937685033     1.512923819
 C       -0.191294791    -0.229949881     2.854917732
 C       -2.140595395    -1.131713137     1.572433955
 H        3.657933358    21.479480645     4.587259154
 H        4.473292149    19.924504909     4.664371272
 H        3.135960693    20.252419027     5.756525301
 H        1.832605369    17.763238987     3.148656854
 H        2.054605117    18.011039422     4.889531567
 H        3.450081037    17.825912728     3.835108785
 H        2.913132038    22.297669393     2.018295074
 H        2.048694689    23.814149854     1.822422325
 H        1.430457849    22.365750224     1.042873730
 H       -0.921448231    23.148742293     3.960041917
 H       -0.873221564    22.860127022     2.211460668
 H       -0.104920691    24.285611891     2.897927810
 H       -4.095107752    13.569115196    -5.478677715
 H       -4.211955587    12.891948300    -7.095497444
 H       -5.224654075    12.239855497    -5.815513458
 H       -7.499963027    14.265283059    -8.146703275
 H       -7.287803446    12.665258400    -7.411207716
 H       -6.120110728    13.269455837    -8.578783547
 H       -9.600818923    15.919923799    -4.087759020
 H       -9.843310108    17.318838270    -5.125238635
 H       -8.497147434    17.305963589    -3.995574157
 H       -6.987880552    16.875675536    -7.477545706
 H       -6.873842293    17.832836961    -5.988335728
 H       -8.325979563    17.896400795    -6.975797768
 H       -3.676590869    15.449328748     0.727318321
 H       -3.284540021    15.485052220     2.440925513
 H       -4.885072918    14.955124292     1.931445117
 H       -3.027760473    11.805047950     3.070512094
 H       -4.481418727    12.781192584     3.348306770
 H       -2.894882607    13.413740351     3.766343411
 H       -1.868289111    14.367008217    -0.858928328
 H       -2.082364914    14.148017443    -2.586568942
 H       -1.524601095    12.794323545    -1.610159330
 H       -5.162037771    12.060274172    -2.598058986
 H       -3.513302626    11.409797286    -2.670425381
 H       -3.930589790    12.866551160    -3.563256342
 H       -0.651076063     0.866261279    -2.875184488
 H       -0.768126567    -0.679842270    -3.704545493
 H        0.781526911    -0.161815861    -3.053718455
 H       -0.468849011    -2.974766459    -0.771547883
 H        0.900698380    -2.461319872    -1.774459796
 H       -0.644567179    -2.850359383    -2.515591972
 H        0.895576150    -0.114106294     2.954749445
 H       -0.517161767    -0.825877618     3.719472878
 H       -0.644806771     0.764129775     2.978309701
 H       -2.517684846    -1.696581313     0.710605853
 H       -2.699929621    -0.187096390     1.628098904
 H       -2.425300451    -1.708393587     2.464555390

