187   

Si        0.000000000     0.000000000     0.000000000
 C        1.865119363     0.000000000     0.000000000
 C       -0.670343445     1.714873815     0.000000000
 C        0.084007206     2.774449818     0.515212762
 C       -0.423968648     4.073221470     0.515086414
 C       -1.698099437     4.341656389     0.007867192
 C       -2.455320527     3.278377390    -0.501202155
 C       -1.950729896     1.980716056    -0.502615115
 C       -2.270722253     5.683532954    -0.012994497
 C       -1.653634142     6.787280468     0.441879448
 C       -2.229496266     8.127834514     0.419388223
 C       -1.476911337     9.194797416     0.926805164
 C       -1.986313075    10.491443652     0.925699820
 C       -3.257214390    10.753148377     0.401948466
 C       -4.010401273     9.688584739    -0.108294238
 C       -3.502747710     8.390918866    -0.094584594
Si       -3.970330961    12.448550916     0.379411687
 C       -4.960406077    12.719160564    -1.135388679
 C       -4.702291483    12.115820748    -2.303332029
 C       -5.480433999    12.317249174    -3.526894206
 C       -5.100384835    11.620355312    -4.684944195
 C       -5.800733192    11.773300549    -5.869328708
 C       -6.939083268    12.603930667    -5.916549984
 C       -7.322053413    13.302208558    -4.762348157
 C       -6.583063933    13.171423090    -3.590639805
 N       -7.607869630    12.714382874    -7.162420871
 C       -8.168791515    11.449789343    -7.680881134
 C       -8.511957766    13.864906651    -7.310096074
 C       -9.578499891    11.072848667    -7.192645816
 C       -9.673472359    10.742019485    -5.691360546
 N       -9.164424513     9.419430316    -5.297149567
 C       -9.630751162     8.297187240    -5.990083598
 C      -10.962147744     8.270813177    -6.463777224
 C      -11.439133237     7.167742261    -7.151325312
 C      -10.637218765     6.035209820    -7.355295176
 C       -9.330436703     6.051526305    -6.860116729
 C       -8.828666445     7.154596009    -6.182472871
 C       -7.771975246     9.408407727    -4.832826450
 C      -11.193287287     4.898199037    -8.089027149
 C      -10.523995794     3.765677530    -8.344530407
Si      -11.217686126     2.344985632    -9.260892921
 C      -13.038424095     2.202538611    -9.039802246
 C      -13.623879339     2.591036282    -7.827456502
 C      -15.000149598     2.489652608    -7.643808267
 C      -15.823719988     1.985787179    -8.659248303
 C      -15.235923132     1.590742535    -9.863981388
 C      -13.858230958     1.695332886   -10.052935583
 C      -17.260407703     1.898920253    -8.419377134
 C      -18.158484184     1.440632931    -9.307670215
 C      -19.595136472     1.353829418    -9.067647497
 C      -20.183657963     1.748556428    -7.863497136
 C      -21.562322681     1.648377533    -7.676541201
 C      -22.382781409     1.144726757    -8.690577561
 C      -21.794876866     0.747416087    -9.899281018
 C      -20.419333713     0.853173795   -10.084572810
Si      -24.203853998     1.005564040    -8.460954524
 C      -24.692747935     1.258534640    -6.678578259
 C      -25.082876320     2.315798179    -9.525886552
 C      -24.746688507    -0.720028306    -9.053850089
 C      -10.793268136     2.538897553   -11.105831321
 C      -10.400517906     0.754428327    -8.610790058
 C       -5.105100749    12.659969944     1.890567323
 C       -2.592621696    13.756875893     0.459480196
 C       -0.648396467    -0.920391755    -1.535453593
 C       -0.631239646    -0.906748070     1.549694266
 H        1.086887064     2.626534023     0.925576025
 H        0.185124994     4.880802266     0.917072694
 H       -3.450925405     3.465220244    -0.899474303
 H       -2.588588416     1.191875500    -0.910876806
 H       -3.277031802     5.743962814    -0.438259687
 H       -0.648043674     6.727660800     0.868200513
 H       -0.483192098     9.011423761     1.331040655
 H       -1.356522424    11.282087401     1.342399937
 H       -5.011307550     9.834489932    -0.529558370
 H       -4.109427393     7.579632224    -0.492950125
 H       -5.787525111    13.436436704    -1.029409228
 H       -3.875067022    11.402058662    -2.431969268
 H       -4.230819736    10.961861665    -4.656938608
 H       -5.469318473    11.266177374    -6.773637031
 H       -8.189558132    13.954952663    -4.772347181
 H       -6.886680792    13.735857633    -2.708191876
 H       -8.841533473    13.926352314    -8.362127123
 H       -7.952515638    14.792149219    -7.090230368
 H       -9.404484463    13.831703696    -6.666304332
 H       -7.555538558    10.326425006    -4.254778868
 H       -7.034760635     9.341818885    -5.649721440
 H       -7.624217783     8.556877395    -4.143183688
 H      -11.619382864     9.116817408    -6.287875130
 H      -12.464128973     7.175878122    -7.525110604
 H       -8.685730322     5.183251921    -7.004417063
 H       -7.806994276     7.126712915    -5.818800551
 H      -12.232583698     5.058450503    -8.410327827
 H       -9.481152113     3.634082276    -8.018700126
 H      -13.028955558     2.987309103    -6.997098964
 H      -15.438026069     2.803229650    -6.697940240
 H      -15.852659303     1.195190311   -10.668600893
 H      -13.456912074     1.369964673   -11.016465336
 H      -17.580579757     2.243065439    -7.431426018
 H      -17.838330996     1.096347992   -10.295450244
 H      -19.566752166     2.140567753    -7.056807241
 H      -21.964419395     1.973706166    -6.713087853
 H      -22.386208068     0.345250387   -10.726760871
 H      -19.981466169     0.540783538   -11.030689636
 H       -8.183988941    11.547776467    -8.793516291
 H       -7.464054310    10.618273048    -7.455900701
 H      -10.289858102    11.886723362    -7.427014623
 H       -9.929961961    10.202174691    -7.786847128
 H       -9.145653420    11.521476220    -5.095138824
 H      -10.742164203    10.793686204    -5.370259024
 H        2.263522092    -1.029150550    -0.048648366
 H        2.276893201     0.473202787     0.908388351
 H        2.258779693     0.550667572    -0.873897695
 H      -25.782049913     1.134617802    -6.543104486
 H      -24.426077904     2.268468599    -6.320745017
 H      -24.191518354     0.524214132    -6.022091910
 H      -26.181083907     2.214364303    -9.287071985
 C      -24.648452463     3.750405879    -9.173548170
 C      -24.904177830     2.104943288   -11.039987127
 H      -24.457549598    -0.777221351   -10.143560714
 C      -24.015509889    -1.854365544    -8.313181790
 C      -26.264667619    -0.953836258    -8.956138160
 H      -11.187766987     1.614271180   -11.617599615
 C      -11.478054011     3.764923976   -11.736085448
 C       -9.279799122     2.619793886   -11.374131057
 H       -9.292017945     0.883148394    -8.775374968
 C      -10.639598873     0.551608333    -7.103732104
 C      -10.852731655    -0.508946103    -9.363415090
 H       -5.507552307    13.712465425     1.834242204
 C       -6.299945497    11.689857861     1.863114996
 C       -4.363145792    12.501939231     3.229009321
 H       -2.034440030    13.563993661     1.420958719
 C       -1.597668355    13.630928881    -0.708133048
 C       -3.128097110    15.199271339     0.503741998
 H       -1.773464056    -0.924509437    -1.443364419
 C       -0.284991136    -0.205527028    -2.849569754
 C       -0.179650602    -2.384300134    -1.616110048
 H       -0.166181019    -1.934047584     1.516692955
 C       -0.188529322    -0.223957358     2.856661717
 C       -2.161108559    -1.075224453     1.573599748
 H      -24.819668443     4.012610092    -8.121569357
 H      -25.223381519     4.474892669    -9.767943072
 H      -23.588818788     3.942249413    -9.395882895
 H      -25.268102344     1.130866575   -11.390413270
 H      -23.859967975     2.213079234   -11.365444751
 H      -25.476539695     2.862935791   -11.594479775
 H      -22.920602836    -1.784413291    -8.385474192
 H      -24.289892815    -2.826497025    -8.746881098
 H      -24.273771083    -1.907586911    -7.247283143
 H      -26.854650260    -0.222718158    -9.523789707
 H      -26.633009011    -0.950241929    -7.921715686
 H      -26.519513405    -1.940825943    -9.368932155
 H      -12.572459554     3.752829734   -11.637716797
 H      -11.265951299     3.804427076   -12.813584685
 H      -11.120188177     4.716141880   -11.315751467
 H       -8.727467970     1.738687528   -11.023597155
 H       -8.813719893     3.508648856   -10.926080754
 H       -9.093244294     2.688080035   -12.455547721
 H      -10.287997533     1.391854773    -6.489306172
 H      -10.096649958    -0.336759756    -6.751577767
 H      -11.697939404     0.381480963    -6.858537170
 H      -10.628151491    -0.480275062   -10.437216787
 H      -11.927485872    -0.712195411    -9.251437184
 H      -10.331895143    -1.391473601    -8.964642445
 H       -6.914299763    11.778096780     0.956834868
 H       -6.970119751    11.893312555     2.710515903
 H       -5.997331943    10.636914329     1.958448894
 H       -3.548732777    13.225068359     3.364511323
 H       -3.943632095    11.495354552     3.369951828
 H       -5.058414493    12.662767699     4.065818506
 H       -1.127019202    12.640539210    -0.778242016
 H       -0.778218790    14.353206473    -0.585756616
 H       -2.055630112    13.847127519    -1.684386102
 H       -3.788697124    15.393700377     1.358268110
 H       -3.668408978    15.482962706    -0.410206709
 H       -2.291667105    15.907282976     0.596804944
 H       -0.633162534     0.836478776    -2.888508152
 H       -0.754800580    -0.718565662    -3.700730017
 H        0.794682295    -0.200178504    -3.050282417
 H       -0.469102429    -2.982268348    -0.742269231
 H        0.906877832    -2.480273050    -1.742318351
 H       -0.634227693    -2.876138416    -2.488431182
 H        0.901025239    -0.137988250     2.956695173
 H       -0.530671209    -0.809831010     3.721962139
 H       -0.615777833     0.781815083     2.978851900
 H       -2.549741171    -1.645479892     0.720357201
 H       -2.696427592    -0.115644521     1.608918317
 H       -2.464446247    -1.628003065     2.474646663

