187   

Si        0.000000000     0.000000000     0.000000000
 C        1.864568176     0.000000000     0.000000000
 C       -0.688912251     1.707021075     0.000000000
 C        0.104201043     2.821547568    -0.288559499
 C       -0.443787123     4.105459981    -0.281633496
 C       -1.790079211     4.303347586     0.032587820
 C       -2.584407069     3.184255550     0.321560034
 C       -2.045294171     1.902044232     0.296554742
 C       -2.417795001     5.618783337     0.056131141
 C       -1.802449223     6.782573554    -0.213576388
 C       -2.469232002     8.081142353    -0.178642036
 C       -3.823685042     8.211718171     0.144371404
 C       -4.433216730     9.463721868     0.169778663
 C       -3.698127712    10.618598528    -0.123179034
 C       -2.343653146    10.491825738    -0.451992909
 C       -1.739885614     9.235994540    -0.486336815
Si       -4.531949190    12.257441486    -0.081151848
 C       -3.324870908    13.598077896    -0.404164081
 C       -3.536987700    14.559220400    -1.313073764
 C       -2.623794653    15.657567827    -1.625316074
 C       -3.012454252    16.574179448    -2.609269294
 C       -2.200145621    17.642423346    -2.960637288
 C       -1.021709908    17.906531071    -2.238849076
 C       -0.650669159    17.005648397    -1.216007773
 C       -1.429463512    15.893197940    -0.934732307
 N       -0.159415611    18.974676826    -2.548775702
 C       -0.444065295    19.813158004    -3.722036789
 C        0.385069094    19.703386603    -1.390504152
 C       -1.720348384    20.675081672    -3.690601173
 C       -1.560402398    22.019606026    -2.957721780
 N       -2.671199608    22.354388301    -2.035692901
 C       -2.653327289    21.512703151    -0.870692561
 C       -1.883718250    21.988024561     0.202518647
 C       -1.803748161    21.247060757     1.370727423
 C       -2.449194253    20.005304847     1.480242585
 C       -3.215322146    19.541945751     0.408880825
 C       -3.338902737    20.299114540    -0.752898438
 C       -3.983198168    22.416951524    -2.704555724
 C       -2.320697863    19.278773459     2.744454761
 C       -2.870766182    18.087675938     3.013222813
Si       -2.661131721    17.244072292     4.624443849
 C       -2.127371607    15.494686309     4.467978192
 C       -1.917373569    14.847689762     3.247736790
 C       -1.510444126    13.510863130     3.216196716
 C       -1.322170352    12.796835460     4.401134586
 C       -1.539365736    13.449000385     5.624125037
 C       -1.934294458    14.779814007     5.659133701
 C       -0.900559610    11.404368869     4.461506616
 C       -0.636878899    10.589239940     3.426735628
 C       -0.218239544     9.200269577     3.608246253
 C       -0.067215047     8.636507701     4.880034698
 C        0.332353721     7.311808509     5.034065455
 C        0.589451583     6.511957685     3.914105846
 C        0.429792671     7.068962654     2.640299771
 C        0.022773178     8.394095451     2.490728576
Si        1.114698565     4.767885057     4.179490385
 C        2.301140275     4.661467900     5.618433472
 C       -0.411147346     3.694904908     4.551579391
 C        1.953305934     4.088864335     2.613455592
 C       -1.400858576    18.215144059     5.675276530
 C       -4.344108139    17.249693776     5.516406765
 C       -5.912784836    12.303790559    -1.393476909
 C       -5.331010585    12.527975575     1.630258678
 C       -0.610763572    -0.927738698    -1.545054646
 C       -0.656999880    -0.897912615     1.545757741
 H        1.167262420     2.728074605    -0.527220158
 H        0.191859372     4.956296152    -0.520143346
 H       -3.637203722     3.316680932     0.564003665
 H       -2.716371429     1.068247789     0.521516980
 H       -3.479422664     5.606333192     0.324648897
 H       -0.743325878     6.810637209    -0.480450115
 H       -4.415910323     7.330783416     0.385447483
 H       -5.493401335     9.501588029     0.437240238
 H       -1.724587414    11.359626285    -0.698967812
 H       -0.689991179     9.155981582    -0.761944140
 H       -2.412443306    13.571948597     0.208185375
 H       -4.451549785    14.598152548    -1.924017962
 H       -3.952533679    16.430235582    -3.142994027
 H       -2.499267791    18.269815832    -3.793082034
 H        0.262881580    17.174842153    -0.651879145
 H       -1.107318730    15.200344900    -0.156163201
 H        0.983395210    20.566097759    -1.722027113
 H        1.062470273    19.038295812    -0.825287578
 H       -0.400912392    20.064749780    -0.703006511
 H       -3.951612042    23.223176694    -3.457439642
 H       -4.751423213    22.690135630    -1.959833824
 H       -4.298314725    21.488621183    -3.203106377
 H       -1.374608587    22.946404110     0.110326702
 H       -1.224765512    21.633031994     2.209470562
 H       -3.726535019    18.580303819     0.475901031
 H       -3.956564366    19.930506540    -1.567884430
 H       -1.702456065    19.823686663     3.473317122
 H       -3.486873752    17.553752557     2.273616544
 H       -2.056291309    15.361148336     2.291054519
 H       -1.337780504    13.024399801     2.257370465
 H       -1.397549199    12.908918539     6.558434251
 H       -2.092602026    15.228844859     6.644719297
 H       -0.798484858    11.024052733     5.486205941
 H       -0.734738004    10.925032713     2.392484895
 H       -0.259463297     9.233108146     5.770365300
 H        0.432804024     6.933407372     6.055305656
 H        0.595659472     6.485535484     1.730378397
 H       -0.113257529     8.803448153     1.490692694
 H        0.446266394    20.459957072    -3.897650185
 H       -0.492282822    19.125406505    -4.602557299
 H       -2.055438722    20.857532806    -4.728452133
 H       -2.538811522    20.096621905    -3.216082360
 H       -0.618273446    22.039887102    -2.366757212
 H       -1.482525690    22.853083170    -3.690196913
 H        2.260837407    -1.031214237    -0.008670080
 H        2.262209976     0.499294045     0.902619394
 H        2.274398811     0.520199403    -0.883243052
 H        2.639713554     3.623109251     5.779881245
 H        1.841507919     5.012744772     6.557885723
 H        3.197617295     5.280564460     5.434006320
 H       -0.021605287     2.646180680     4.697954790
 C       -1.140653807     4.117189902     5.840203454
 C       -1.424585830     3.673367812     3.397325684
 H        1.157552865     4.093763711     1.810162230
 C        3.127537801     4.958695908     2.128317045
 C        2.450921428     2.641334860     2.774895086
 H       -1.707472498    19.298692141     5.587134234
 C       -1.393123674    17.864061077     7.173052953
 C        0.031911496    18.073068509     5.128897088
 H       -4.151701356    16.807940025     6.536806518
 C       -4.919949396    18.663191026     5.706284600
 C       -5.389633738    16.369006856     4.810320423
 H       -6.292014731    13.366873411    -1.399406156
 C       -5.385992178    11.970000020    -2.801930669
 C       -7.111247233    11.385485449    -1.095368029
 H       -6.361541511    12.073994695     1.557785986
 C       -4.595066744    11.821239900     2.779733530
 C       -5.488728091    14.018065754     1.980754680
 H       -0.115028647    -1.940723091    -1.508341376
 C       -2.134117421    -1.144895580    -1.574354452
 C       -0.186319175    -0.236098711    -2.853607396
 H       -1.780472357    -0.915944486     1.436465284
 C       -0.172038951    -2.354219249     1.657932782
 C       -0.324423121    -0.157847945     2.853900863
 H       -0.504573627     4.082982330     6.733254932
 H       -1.981539677     3.436282774     6.034927788
 H       -1.573092383     5.125828375     5.772880741
 H       -1.003847302     3.289617394     2.455534326
 H       -1.854954850     4.662364491     3.182323313
 H       -2.270357039     3.017033700     3.644105080
 H        2.856536077     6.009794906     1.959511985
 H        3.506694676     4.578818296     1.169306195
 H        3.978529781     4.949877111     2.822262194
 H        1.648290444     1.935291332     3.027645402
 H        3.238929362     2.538400407     3.531864133
 H        2.886403492     2.290006508     1.827925587
 H       -2.377194108    17.954333604     7.649837851
 H       -0.727192153    18.552816939     7.713879855
 H       -1.009856370    16.854656574     7.374431681
 H        0.131656435    18.358402366     4.072298751
 H        0.424598130    17.050573493     5.228238066
 H        0.717749355    18.721704822     5.691371718
 H       -4.259475091    19.330934310     6.274284066
 H       -5.863205626    18.613456493     6.268777498
 H       -5.155846089    19.160387996     4.754346202
 H       -5.068483790    15.322913807     4.699181345
 H       -5.664817541    16.742578250     3.814540776
 H       -6.318383507    16.342898689     5.397761104
 H       -4.550048620    12.605568034    -3.124713362
 H       -6.182853638    12.106371400    -3.546205123
 H       -5.053863042    10.925704296    -2.893862632
 H       -7.595656838    11.592730519    -0.133021608
 H       -6.849179268    10.318894016    -1.119519017
 H       -7.887590891    11.524260580    -1.862215298
 H       -4.476167982    10.739714875     2.628417303
 H       -5.154007222    11.941691072     3.718169784
 H       -3.593929944    12.234403174     2.970351784
 H       -6.030706341    14.595319639     1.221593011
 H       -4.521586177    14.515775034     2.152283118
 H       -6.058298642    14.124248960     2.915020364
 H       -2.511344286    -1.707971355    -0.711408935
 H       -2.412822690    -1.727341184    -2.464789247
 H       -2.698273282    -0.203675091    -1.637024301
 H        0.900071178    -0.113188204    -2.950390348
 H       -0.646290848     0.754340084    -2.981597165
 H       -0.505152693    -0.836587108    -3.717707695
 H       -0.439624381    -2.970460989     0.790025793
 H       -0.634582431    -2.837847120     2.530641982
 H        0.913486350    -2.434657715     1.802696928
 H       -0.672638451     0.886374920     2.864488378
 H        0.749726035    -0.154975715     3.081798678
 H       -0.818487557    -0.652390676     3.702320552

