187   

Si        0.000000000     0.000000000     0.000000000
 C        1.866679213     0.000000000     0.000000000
 C       -0.620782645     1.733446387     0.000000000
 C       -0.072992554     2.643607445     0.913000731
 C       -0.513317233     3.964690014     0.947255903
 C       -1.520001334     4.405839737     0.082658658
 C       -2.070990687     3.493110255    -0.824976702
 C       -1.626985576     2.172816133    -0.867341781
 C       -2.005482496     5.782199957     0.091105378
 C       -1.542614106     6.739511906     0.912782677
 C       -2.010449578     8.120181864     0.940787114
 C       -3.012851056     8.598042454     0.093975280
 C       -3.424521386     9.929173783     0.161104849
 C       -2.805232025    10.825423853     1.038258914
 C       -1.794192089    10.349588516     1.883109845
 C       -1.417695456     9.010539534     1.845890174
Si       -3.325891942    12.586638828     1.149368900
 C       -1.961004067    13.719985700     0.708899551
 C       -1.553724169    14.774585882     1.427966679
 C       -0.454709863    15.661226525     1.042508516
 C       -0.121021163    16.734698896     1.880273617
 C        0.910191617    17.604686138     1.563762779
 C        1.681915478    17.403752311     0.397887103
 C        1.350801562    16.319239286    -0.443160699
 C        0.293740170    15.478948623    -0.124239235
 N        2.722837755    18.269149613     0.064459481
 C        3.237624905    19.221896210     1.053938270
 C        3.678228999    17.843545095    -0.965043949
 C        3.926780877    18.586402942     2.273328556
 C        5.354852640    18.116494599     1.944370309
 N        5.930927940    17.210985798     2.951102370
 C        5.320622423    15.952370801     3.122976275
 C        4.432623256    15.427914182     2.162290031
 C        3.843436703    14.187729847     2.351491878
 C        4.158083375    13.400329083     3.467185708
 C        5.064384827    13.906344275     4.403095889
 C        5.643776657    15.157195944     4.239975753
 C        6.338757455    17.908274242     4.184180863
 C        3.505439523    12.099571555     3.615497507
 C        3.722503608    11.258979372     4.634776852
Si        2.939363090     9.623016520     4.875789998
 C        2.498620305     8.783749528     3.297167220
 C        1.874312985     9.502357647     2.268911687
 C        1.535859444     8.880072603     1.070720530
 C        1.814121221     7.523169512     0.864490638
 C        2.436484738     6.805410928     1.888978600
 C        2.772889248     7.427843591     3.090618087
 C        1.439689527     6.918434162    -0.407704956
 C        1.645626915     5.631267274    -0.732831758
 C        1.267428196     5.034808097    -2.008740719
 C        0.645196126     5.766958095    -3.023810899
 C        0.299783982     5.159259763    -4.228936311
 C        0.571446061     3.802854942    -4.445680183
 C        1.193427399     3.068467005    -3.429905503
 C        1.535417881     3.677891067    -2.225289833
Si        0.097889843     3.040804702    -6.052756737
 C        0.584437155     4.139387081    -7.478292431
 C        0.912538344     1.329492491    -6.230081984
 C       -1.791933824     2.791322663    -6.048529061
 C        4.157309325     8.618988826     5.942987526
 C        1.330982358     9.843033516     5.877297914
 C       -4.751453554    12.937299207    -0.069454936
 C       -3.977467917    12.928629812     2.906700484
 C       -0.647523050    -0.941335102    -1.522929720
 C       -0.648097913    -0.891575822     1.551512294
 H        0.714121909     2.358955998     1.617004846
 H       -0.064850768     4.656509841     1.659438489
 H       -2.847555603     3.817855113    -1.514406531
 H       -2.092184114     1.508037878    -1.599617362
 H       -2.792325404     5.998305257    -0.635493447
 H       -0.744912717     6.517285169     1.631235439
 H       -3.489788022     7.929057116    -0.619220929
 H       -4.235160653    10.233619370    -0.505739065
 H       -1.266202344    11.007577819     2.581814930
 H       -0.644730516     8.649038946     2.526098630
 H       -1.474453189    13.462764060    -0.246296179
 H       -2.020539370    15.058612584     2.380395048
 H       -0.686084992    16.896522469     2.799260641
 H        1.119703373    18.435932555     2.228432337
 H        1.910866783    16.132819202    -1.352898700
 H        0.055244665    14.653033833    -0.796790213
 H        4.509223190    18.561519557    -1.054814575
 H        3.165998671    17.820740919    -1.946439778
 H        4.103678711    16.842599888    -0.771218861
 H        6.676632676    18.931568913     3.955073498
 H        7.202029775    17.378875609     4.627598060
 H        5.534362311    17.968185688     4.935207779
 H        4.173199342    15.996574494     1.273878726
 H        3.129521901    13.821208586     1.610999710
 H        5.329305465    13.312410317     5.278746903
 H        6.349785333    15.511896061     4.983669516
 H        2.817724577    11.872701275     2.788027810
 H        4.421046545    11.528063308     5.443670021
 H        1.617993914    10.563345690     2.368844834
 H        1.045487035     9.457298666     0.287081996
 H        2.667171948     5.750692865     1.754496370
 H        3.258162940     6.811030323     3.852217356
 H        0.954305267     7.600210175    -1.112796824
 H        2.122783326     4.943664264    -0.028882234
 H        0.420662028     6.822055236    -2.876593592
 H       -0.182570067     5.783679707    -4.986037185
 H        1.430601556     2.006867078    -3.539941552
 H        2.009385437     3.088331027    -1.442032882
 H        3.933351587    19.924708399     0.541548832
 H        2.380902370    19.852932837     1.396040968
 H        3.950120856    19.308010686     3.109508161
 H        3.323088121    17.730625802     2.644640144
 H        5.384436036    17.592025021     0.961885631
 H        6.033822201    18.991532806     1.833691715
 H        2.264895368    -1.029566888     0.004941893
 H        2.275950508     0.521041309     0.882615042
 H        2.261335740     0.505880843    -0.900363645
 H        0.318742357     3.680156558    -8.446475929
 H        1.675415931     4.318448712    -7.481917033
 H        0.087581311     5.123649978    -7.426260965
 H        0.623506493     0.750905363    -5.303942862
 C        0.412694145     0.534546539    -7.450038947
 C        2.449485008     1.403213364    -6.282772751
 H       -2.041266110     2.320373091    -7.042016069
 C       -2.274216761     1.846676659    -4.932649015
 C       -2.572395641     4.114133436    -5.939594931
 H        4.419554522     9.303360200     6.803844990
 C        3.576552838     7.328429155     6.546249489
 C        5.461846031     8.289586412     5.195859837
 H        0.936784950     8.799895005     6.050019886
 C        1.564540439    10.502278468     7.248273544
 C        0.254112860    10.639689718     5.121042254
 H       -5.509314268    12.118632019     0.096074342
 C       -5.448448948    14.286269891     0.184896891
 C       -4.302397567    12.891192806    -1.541775578
 H       -4.285963909    14.014574315     2.904409232
 C       -5.213922133    12.080508032     3.256359921
 C       -2.925441499    12.738787051     4.014385617
 H       -1.769620923    -0.818104971    -1.507178273
 C       -0.122931482    -0.364900116    -2.850067301
 C       -0.342111945    -2.450198966    -1.486613094
 H       -0.227300649    -1.937101339     1.502002066
 C       -0.167829267    -0.250215219     2.866026376
 C       -2.183791992    -0.994209503     1.586221680
 H       -0.670165784     0.355665339    -7.438013041
 H        0.887085304    -0.457287678    -7.471910373
 H        0.661191227     1.013513583    -8.406159123
 H        2.893232593     1.939296921    -5.432018318
 H        2.821447834     1.879809373    -7.199647155
 H        2.876562400     0.390564348    -6.266825570
 H       -1.846449453     0.838405861    -5.002357896
 H       -3.364815163     1.721599379    -4.989930442
 H       -2.061187075     2.235757826    -3.925302249
 H       -2.337568093     4.826455285    -6.740293455
 H       -2.413352047     4.623615926    -4.977771905
 H       -3.652131382     3.920386471    -6.010144934
 H        2.690073841     7.503016499     7.170085810
 H        4.321908351     6.851441484     7.199252693
 H        3.306263779     6.577037286     5.793024603
 H        5.973302004     9.180022464     4.802350784
 H        5.316378061     7.600376217     4.352937057
 H        6.173934174     7.800168019     5.874998422
 H        2.266799807     9.951215449     7.886142645
 H        0.619119065    10.550813633     7.807657346
 H        1.926767507    11.536827345     7.167465509
 H       -0.053182467    10.158067641     4.181957912
 H        0.563470016    11.669178724     4.890014247
 H       -0.654596179    10.720700121     5.734509322
 H       -5.905663224    14.359144597     1.179914144
 H       -6.264487267    14.429789412    -0.537794902
 H       -4.775148108    15.146496569     0.062413406
 H       -3.781863073    11.965420422    -1.819782768
 H       -3.644790976    13.730964009    -1.808279878
 H       -5.177141764    12.962801523    -2.203644002
 H       -6.057543438    12.233108624     2.571166893
 H       -5.580885276    12.344460484     4.258497726
 H       -4.999441281    11.002285828     3.282274837
 H       -1.984388680    13.274213938     3.828837079
 H       -2.680098568    11.680897043     4.186088803
 H       -3.314826174    13.120582565     4.968807307
 H       -0.330318336     0.709838748    -2.965495644
 H       -0.608621486    -0.868238373    -3.698112062
 H        0.957447767    -0.512561925    -2.981158767
 H       -0.771863038    -2.960373653    -0.615081702
 H        0.732798230    -2.672160128    -1.506038240
 H       -0.773476381    -2.942125562    -2.370432252
 H        0.924556277    -0.192088761     2.949931816
 H       -0.509835932    -0.849063559     3.722484535
 H       -0.572860484     0.760640190     3.018717545
 H       -2.605366131    -1.524813384     0.723071936
 H       -2.675540803    -0.012476792     1.646947149
 H       -2.504138128    -1.553492233     2.476966836

