187   

Si        0.000000000     0.000000000     0.000000000
 C        1.865080811     0.000000000     0.000000000
 C       -0.684620582     1.708847352     0.000000000
 C        0.124381472     2.814110818     0.281252218
 C       -0.408948474     4.103163662     0.277456776
 C       -1.761624838     4.315540859     0.000034736
 C       -2.572079759     3.206412449    -0.277900360
 C       -2.042130742     1.919380708    -0.277989455
 C       -2.364699587     5.644069762    -0.015565894
 C       -1.705336557     6.789256939     0.229050772
 C       -2.314471271     8.115217144     0.211898931
 C       -1.512323728     9.230695042     0.485160723
 C       -2.051319100    10.515178911     0.479725189
 C       -3.405691203    10.714715701     0.188222886
 C       -4.209063979     9.601572024    -0.085818090
 C       -3.669040650     8.316899224    -0.068551946
Si       -4.148571248    12.396589048     0.172611819
 C       -5.480873798    12.538611602    -1.073555737
 C       -5.515486236    11.840086822    -2.216024482
 C       -6.579720435    11.950745191    -3.215862480
 C       -6.498869129    11.161644131    -4.374062015
 C       -7.478533284    11.228086165    -5.350445301
 C       -8.561131638    12.119836761    -5.208392704
 C       -8.648585231    12.906283876    -4.050619409
 C       -7.676171402    12.801484247    -3.061150617
 N       -9.528223597    12.136184891    -6.245718693
 C       -9.018364763    12.543093592    -7.570681140
 C      -10.829262897    12.731316270    -5.904977665
 C       -8.989132762    14.054452874    -7.858884650
 C       -7.984097093    14.850343986    -7.005289138
 N       -6.574176110    14.733188743    -7.409617517
 C       -6.252905419    14.969622971    -8.751541391
 C       -6.964179180    15.951491059    -9.477394696
 C       -6.659828147    16.198647211   -10.805556786
 C       -5.615109242    15.520973030   -11.450430633
 C       -4.893328422    14.571129579   -10.721844208
 C       -5.194235563    14.297973124    -9.394413213
 C       -5.816983074    13.695519621    -6.698531039
 C       -5.336553471    15.821075913   -12.855555568
 C       -4.365945880    15.236416049   -13.569950925
Si       -3.974530751    15.571586284   -15.322455259
 C       -2.171924409    15.889312083   -15.507399168
 C       -1.410364525    16.293265392   -14.405755861
 C       -0.043772289    16.535206298   -14.541300337
 C        0.587725639    16.390755220   -15.779688673
 C       -0.179284534    15.992699087   -16.882810388
 C       -1.543165866    15.745484458   -16.750387334
 C        2.014341324    16.633118652   -15.968005394
 C        2.859460000    17.017515800   -14.996321508
 C        4.286080080    17.260188351   -15.183251726
 C        4.920820629    17.111909275   -16.419059779
 C        6.287949899    17.354654148   -16.552350829
 C        7.049523250    17.758969271   -15.451429612
 C        6.414791014    17.909563820   -14.210910147
 C        5.051564898    17.660714050   -14.079665018
Si        8.854601070    18.083334276   -15.610567167
 C        9.378463878    18.187902755   -17.397859935
 C        9.248713963    19.715003221   -14.712704225
 C        9.827092147    16.679536825   -14.769292409
 C       -4.456592390    14.045564191   -16.352912953
 C       -4.940115686    17.075680352   -15.971515658
 C       -4.887543076    12.757847942     1.887309357
 C       -2.820535882    13.703336249    -0.212119872
 C       -0.655180264    -0.903784114    -1.542513949
 C       -0.611067227    -0.925155321     1.547247383
 H        1.189511278     2.710577592     0.505931210
 H        0.242733751     4.947117526     0.496049140
 H       -3.628522871     3.349891941    -0.496930636
 H       -2.722568502     1.093390394    -0.503830026
 H       -3.433894206     5.656840642    -0.248058744
 H       -0.636785542     6.778152354     0.461931145
 H       -0.455472194     9.095457910     0.706908803
 H       -1.377889948    11.346027886     0.706830656
 H       -5.275379178     9.697874431    -0.317372043
 H       -4.315574943     7.467108667    -0.280402336
 H       -6.266262077    13.268064565    -0.824109296
 H       -4.738500652    11.112008140    -2.490828753
 H       -5.661185397    10.474027044    -4.500962750
 H       -7.428050153    10.581934937    -6.224759239
 H       -9.475743652    13.595483894    -3.910698223
 H       -7.771092819    13.409775519    -2.160827745
 H      -11.536066479    12.539331991    -6.731264137
 H      -10.801310578    13.815353725    -5.714442885
 H      -11.232356367    12.226236137    -5.008762365
 H       -6.130373016    13.656206684    -5.638375709
 H       -4.743516898    13.960438350    -6.702547580
 H       -5.940059492    12.686700127    -7.125004558
 H       -7.753139747    16.520113078    -8.994739813
 H       -7.235783578    16.945612994   -11.352507539
 H       -4.074810373    14.029371560   -11.199160935
 H       -4.611684473    13.548928165    -8.867982262
 H       -6.004979271    16.584518700   -13.274338451
 H       -3.715681079    14.467313658   -13.120552981
 H       -1.852117167    16.427943922   -13.412634618
 H        0.529299227    16.842955952   -13.668428940
 H        0.293416226    15.874557214   -17.855688822
 H       -2.090365494    15.436121056   -17.644877841
 H        2.373856285    16.477773344   -16.989350619
 H        2.499046470    17.173201661   -13.975146314
 H        4.349949298    16.802584181   -17.292591272
 H        6.728604321    17.220895950   -17.544099194
 H        6.958803499    18.224144677   -13.315735336
 H        4.576560570    17.781964142   -13.107935748
 H       -8.000230282    12.117601434    -7.716072455
 H       -9.671565589    12.041500088    -8.325186078
 H       -8.758597068    14.198915025    -8.935831205
 H       -9.998325517    14.485419706    -7.720895190
 H       -8.248636725    15.934936947    -7.040443830
 H       -8.075053851    14.556603963    -5.934403185
 H        2.262413287    -1.030137465    -0.036886113
 H        2.274800913     0.482284631     0.904766872
 H        2.261225761     0.540076528    -0.879164563
 H       10.452995643    18.429111095   -17.484115482
 H        8.817460581    18.977945666   -17.929348363
 H        9.207459469    17.236183838   -17.930687553
 H        8.952562354    19.554453976   -13.635286120
 C       10.741972876    20.086413506   -14.740439498
 C        8.427066133    20.898430396   -15.255209737
 H       10.916041239    16.910368843   -14.953737012
 C        9.607698336    16.601859711   -13.247886239
 C        9.520685268    15.300785286   -15.382330421
 H       -4.224468372    14.307857218   -17.425387413
 C       -3.634117611    12.799096749   -15.980470721
 C       -5.954401224    13.705221089   -16.259714767
 H       -6.025678603    16.869180559   -15.742718158
 C       -4.538887666    18.381868215   -15.261895875
 C       -4.805364080    17.278566456   -17.491452549
 H       -5.315955229    13.799929570     1.830276304
 C       -6.029937792    11.790107765     2.244499965
 C       -3.839515975    12.732327020     3.013336087
 H       -2.048171626    13.615212380     0.605533672
 C       -2.124388640    13.447499660    -1.560827282
 C       -3.364960263    15.142842194    -0.197680828
 H       -1.779609346    -0.908085027    -1.443989652
 C       -0.300392963    -0.171430882    -2.849255085
 C       -0.185553893    -2.365852381    -1.643399885
 H       -0.112867639    -1.937122576     1.513193513
 C       -0.190444887    -0.229568439     2.854930982
 C       -2.134174344    -1.144914182     1.573972440
 H       11.389935571    19.315876902   -14.303108930
 H       10.912074744    21.000404553   -14.152867595
 H       11.111474063    20.299500115   -15.752281690
 H        7.341616154    20.727708057   -15.214525502
 H        8.682060285    21.159413441   -16.290878729
 H        8.618715565    21.798141558   -14.653240569
 H        9.883899632    17.523216226   -12.719748158
 H       10.232061109    15.804340549   -12.819166862
 H        8.570900484    16.355324078   -12.978621668
 H        9.730113836    15.244920951   -16.458278551
 H        8.477525691    14.988158261   -15.229842214
 H       10.144911163    14.530104892   -14.907736347
 H       -2.548772541    12.953428894   -16.061106024
 H       -3.877192494    11.970269025   -16.660233870
 H       -3.843421483    12.436247541   -14.964821677
 H       -6.607877217    14.520719015   -16.595051729
 H       -6.266811865    13.425266190   -15.243426766
 H       -6.185147323    12.842614098   -16.900809699
 H       -4.640362648    18.338238310   -14.168787759
 H       -5.180619739    19.207590165   -15.599381717
 H       -3.505094727    18.685185434   -15.482448403
 H       -5.167029133    16.425201990   -18.078819716
 H       -3.773499419    17.490786780   -17.805120307
 H       -5.404531840    18.144289513   -17.809041927
 H       -6.849616564    11.792449089     1.513304940
 H       -6.476168214    12.073151994     3.208518364
 H       -5.689335029    10.750634221     2.358278752
 H       -3.034412571    13.465584806     2.876947705
 H       -3.374252021    11.744469927     3.143127028
 H       -4.314824267    12.974490493     3.975071709
 H       -1.658397039    12.454886999    -1.631336586
 H       -1.317035059    14.177695014    -1.713335355
 H       -2.803586657    13.554821403    -2.419184539
 H       -3.815027988    15.430124056     0.761059337
 H       -4.107955077    15.326781617    -0.986342899
 H       -2.546337931    15.855222050    -0.376748936
 H       -0.655989812     0.868626379    -2.873968124
 H       -0.771202066    -0.676893725    -3.704491891
 H        0.778202871    -0.157089551    -3.054469963
 H       -0.465934041    -2.974020036    -0.773724666
 H        0.899967805    -2.458606697    -1.780570403
 H       -0.647184388    -2.848682741    -2.517064859
 H        0.895548459    -0.105362603     2.953992307
 H       -0.511023911    -0.828088087     3.719692484
 H       -0.651398104     0.760962430     2.978870517
 H       -2.508545730    -1.710306612     0.711272837
 H       -2.700040538    -0.204493365     1.633299854
 H       -2.413717388    -1.725959822     2.465005606

