187   

Si        0.000000000     0.000000000     0.000000000
 C        1.865104589     0.000000000     0.000000000
 C       -0.678985787     1.711126886     0.000000000
 C        0.108520986     2.798111310     0.392910956
 C       -0.414525481     4.091115792     0.389695581
 C       -1.735603115     4.326504982     0.000048510
 C       -2.524906311     3.235683333    -0.388333772
 C       -2.005636873     1.944044651    -0.386671008
 C       -2.325683834     5.660846651    -0.019237805
 C       -1.681693063     6.788338042     0.327102054
 C       -2.273461570     8.121989559     0.307193181
 C       -3.595181035     8.353643262    -0.083127890
 C       -4.121255106     9.645173457    -0.087489775
 C       -3.339302964    10.732316937     0.315333533
 C       -2.014417479    10.502987795     0.710228713
 C       -1.488433189     9.214057412     0.700665869
Si       -4.006186026    12.446598939     0.319961665
 C       -3.310894571    13.443761053     1.685770490
 C       -2.918799609    12.935501173     2.862089602
 C       -2.361861666    13.729884531     3.957773859
 C       -1.987584374    13.080128944     5.143072186
 C       -1.455608383    13.784530255     6.210274697
 C       -1.324422764    15.189311085     6.146110549
 C       -1.701181649    15.842227216     4.956948311
 C       -2.188763836    15.113844307     3.878999844
 N       -0.783179775    15.890811905     7.235937611
 C       -1.021921027    15.347021355     8.584745682
 C       -0.804966230    17.359229698     7.167423028
 C       -2.500299566    15.139858895     8.955664998
 C       -3.208180878    16.416577503     9.440319600
 N       -2.983833177    16.761031785    10.855615981
 C       -3.305338568    15.791817421    11.819924109
 C       -4.369820842    14.893830714    11.585512632
 C       -4.697749210    13.933184546    12.527664686
 C       -4.020925934    13.857077507    13.753709341
 C       -2.988665522    14.766427343    13.997114948
 C       -2.634161577    15.724797620    13.055915966
 C       -1.780512479    17.571661665    11.093629373
 C       -4.409227222    12.821612770    14.712173188
 C       -3.836483287    12.651970960    15.911748392
Si       -4.322431571    11.357855864    17.108559256
 C       -6.103058608    10.919208031    16.965034859
 C       -7.033253694    11.896596106    16.592538836
 C       -8.386111315    11.580568509    16.479242475
 C       -8.842131542    10.286835491    16.747864553
 C       -7.910691149     9.312356900    17.129199315
 C       -6.557605833     9.623755962    17.239105480
 C      -10.247839446     9.910142301    16.642629556
 C      -11.239769918    10.744734127    16.288249843
 C      -12.645283049    10.367051348    16.183294626
 C      -13.099696135     9.072541437    16.447811163
 C      -14.453105883     8.754598316    16.335103369
 C      -15.382113914     9.725117529    15.947357869
 C      -14.928647802    11.024140299    15.680159790
 C      -13.578099346    11.339849222    15.799264508
Si      -17.171613712     9.321839608    15.793866098
 C      -17.465573134     7.480066979    15.829243927
 C      -18.128937875    10.120777541    17.232092275
 C      -17.810470008    10.058431345    14.158908617
 C       -3.242119455     9.818569437    16.819433486
 C       -3.995328614    12.012858112    18.864447239
 C       -3.550032768    13.282477944    -1.327022078
 C       -5.901478574    12.418217554     0.485104107
 C       -0.651007110    -0.912101644    -1.539276382
 C       -0.622372188    -0.916569052     1.547686748
 H        1.148895630     2.676674402     0.706994087
 H        0.220429958     4.920413295     0.696291332
 H       -3.556673995     3.396874419    -0.694907217
 H       -2.669419827     1.133048222    -0.699044462
 H       -3.369079219     5.694322349    -0.346272752
 H       -0.638257935     6.755365662     0.654105244
 H       -4.226857221     7.523087347    -0.392133300
 H       -5.158902947     9.763824045    -0.410827352
 H       -1.357022994    11.317174734     1.034353117
 H       -0.456013091     9.055542272     1.006808764
 H       -3.248406671    14.522810553     1.480385239
 H       -2.979326326    11.862317928     3.094439458
 H       -2.104640727    11.998150128     5.224489647
 H       -1.141142058    13.245029276     7.099323602
 H       -1.610230832    16.918604144     4.859999171
 H       -2.456181699    15.642973786     2.963112012
 H       -0.357980346    17.789017247     8.078943137
 H       -1.815439453    17.780947388     7.038875661
 H       -0.174713172    17.688473602     6.319466319
 H       -1.629774643    18.281860229    10.264091902
 H       -0.862141033    16.974118983    11.216023534
 H       -1.931393336    18.177994678    12.007026315
 H       -4.937801619    14.947228173    10.660913932
 H       -5.508252361    13.233900983    12.315391173
 H       -2.445906329    14.730917499    14.942939887
 H       -1.826025818    16.409790533    13.288362513
 H       -5.234236144    12.189089975    14.353722455
 H       -3.006259885    13.293266945    16.243826552
 H       -6.735293906    12.928185735    16.375074722
 H       -9.088887992    12.356287556    16.180475566
 H       -8.244976589     8.299173715    17.343370376
 H       -5.878461415     8.821955463    17.541066049
 H      -10.459566969     8.863173592    16.878807935
 H      -11.028464781    11.791900109    16.052216121
 H      -12.396689025     8.297336954    16.747171689
 H      -14.748279451     7.725202873    16.556438984
 H      -15.608673681    11.823497549    15.372315678
 H      -13.245336379    12.354586900    15.588956188
 H       -0.480675229    14.371860055     8.650430505
 H       -0.522717936    16.006343901     9.327891224
 H       -3.050123658    14.728410542     8.083995785
 H       -2.572518554    14.353498722     9.735284008
 H       -2.916116870    17.285844352     8.811672379
 H       -4.310825409    16.309667874     9.295512373
 H        2.262960004    -1.029706676    -0.041484006
 H        2.276175210     0.478797840     0.905881465
 H        2.259873195     0.544224530    -0.877347926
 H      -18.537052383     7.245519302    15.698106318
 H      -17.141876271     7.031913420    16.784936925
 H      -16.913810929     6.975228586    15.015531732
 H      -19.199304894     9.785775659    17.108010331
 C      -17.634850498     9.639887784    18.608839719
 C      -18.106417124    11.659591172    17.210516736
 H      -17.641872711    11.172088211    14.234978066
 C      -17.027360803     9.546657529    12.936366607
 C      -19.313585888     9.824337944    13.925767060
 H       -3.536559916     9.074861854    17.615035547
 C       -3.498496179     9.176169792    15.444372348
 C       -1.735756637    10.098485410    16.966338755
 H       -2.894834430    12.257096151    18.906811734
 C       -4.783050986    13.301617383    19.161063114
 C       -4.298332207    10.977731826    19.961680373
 H       -3.986225851    14.321781582    -1.280854645
 C       -2.027544016    13.410710619    -1.513737158
 C       -4.145736502    12.567680756    -2.552305241
 H       -6.284294402    11.832100116    -0.399602107
 C       -6.364987189    11.706649541     1.768896283
 C       -6.535721388    13.819773437     0.435244755
 H       -1.775522680    -0.922552390    -1.441002790
 C       -0.299287933    -0.183610033    -2.849001882
 C       -0.174469665    -2.372495059    -1.634532605
 H       -0.146299804    -1.938752499     1.510900796
 C       -0.184648010    -0.232671869     2.855835527
 C       -2.150141367    -1.102263936     1.575089625
 H      -17.693935266     8.551598215    18.738418304
 H      -18.253693627    10.077823102    19.405146769
 H      -16.599817994     9.944463594    18.821163840
 H      -18.522726741    12.088925554    16.290505614
 H      -17.097862470    12.073491930    17.350781045
 H      -18.716146622    12.055199379    18.036000118
 H      -15.945687329     9.731279411    13.005847096
 H      -17.368624062    10.061774837    12.027127967
 H      -17.168408224     8.473016500    12.754559761
 H      -19.946194694    10.229659196    14.726012995
 H      -19.567858193     8.763176311    13.803324783
 H      -19.631884783    10.324764380    12.999594938
 H       -4.547725430     8.891756908    15.283603747
 H       -2.910250626     8.253480006    15.342517170
 H       -3.201597353     9.825415531    14.607839430
 H       -1.458992117    10.490478802    17.953243703
 H       -1.355726245    10.797737318    16.208376451
 H       -1.166648236     9.166638432    16.836334809
 H       -4.577403263    14.112594650    18.449041927
 H       -4.514550662    13.687725270    20.154546809
 H       -5.871041126    13.142725024    19.177509140
 H       -3.701802873    10.060904776    19.873006905
 H       -5.357948182    10.685935860    19.994005430
 H       -4.067442239    11.399342659    20.950743766
 H       -1.533242395    13.963118021    -0.702901070
 H       -1.805974312    13.958861859    -2.440368457
 H       -1.525416856    12.436767014    -1.606218727
 H       -5.242083365    12.520873009    -2.539310027
 H       -3.768480045    11.542213038    -2.675225823
 H       -3.872640117    13.105663563    -3.471671617
 H       -6.000344792    10.673411363     1.852506073
 H       -7.462167037    11.649028990     1.794107320
 H       -6.062705201    12.237278416     2.683586680
 H       -6.316687738    14.364745286    -0.491732021
 H       -6.232781096    14.455878750     1.278720650
 H       -7.630888955    13.738286884     0.490895752
 H       -0.657059393     0.855633622    -2.877317122
 H       -0.768972478    -0.693378420    -3.702191980
 H        0.779252649    -0.167174797    -3.054690780
 H       -0.453211391    -2.978729313    -0.762988065
 H        0.911606547    -2.460778387    -1.770069200
 H       -0.633014015    -2.860390922    -2.506968675
 H        0.904045352    -0.133976757     2.953732121
 H       -0.518019528    -0.824946653     3.720110502
 H       -0.622867649     0.767911591     2.981787101
 H       -2.535720411    -1.668495742     0.717900659
 H       -2.695350970    -0.148841516     1.622402312
 H       -2.443803236    -1.667073919     2.471897391

