187   

Si        0.000000000     0.000000000     0.000000000
 C        1.865300887     0.000000000     0.000000000
 C       -0.677233509     1.711884124     0.000000000
 C        0.132820519     2.808776564     0.310056941
 C       -0.391505066     4.101359202     0.306824075
 C       -1.735931772     4.326274400    -0.000106887
 C       -2.547358633     3.225590327    -0.306768774
 C       -2.026647073     1.934639306    -0.306104609
 C       -2.327757024     5.659986202    -0.015865625
 C       -1.662755728     6.795520709     0.256475598
 C       -2.254182906     8.129309545     0.240821624
 C       -3.598858942     8.353885249    -0.066203109
 C       -4.123197081     9.646138988    -0.069470838
 C       -3.315282186    10.741589798     0.250670036
 C       -1.966798192    10.519509220     0.561319937
 C       -1.443424567     9.229580776     0.550570002
Si       -3.975183428    12.458681927     0.255820712
 C       -3.190499000    13.484591008     1.549748900
 C       -2.724933877    13.005060168     2.711108882
 C       -2.096847617    13.827149461     3.746477464
 C       -1.647641801    13.210283011     4.922804112
 C       -1.046622886    13.944160567     5.932647605
 C       -0.822518962    15.328841971     5.775108577
 C       -1.270376006    15.947488083     4.592971624
 C       -1.915750234    15.205991466     3.611463991
 N       -0.210201797    16.063677407     6.810106868
 C        0.805551499    15.356234892     7.612512892
 C        0.185757970    17.447524479     6.495320673
 C        1.993901444    14.858402872     6.775090699
 C        3.024531904    14.144615010     7.663911708
 N        4.152855167    13.578684848     6.898583030
 C        4.901767433    14.495126085     6.130093972
 C        5.175584762    15.776858647     6.653524360
 C        5.908802411    16.693584513     5.917701427
 C        6.438578802    16.358979427     4.663291415
 C        6.192416281    15.078800720     4.160624524
 C        5.443237814    14.154217499     4.877655213
 C        3.805465280    12.301986976     6.250173990
 C        7.206380388    17.364222013     3.925585163
 C        7.755236112    17.150916981     2.722670785
Si        8.722686493    18.358631787     1.750429306
 C        8.063933273    18.427208409     0.034260709
 C        6.762875910    17.991166893    -0.237650842
 C        6.257483499    18.040461970    -1.536194637
 C        7.034721932    18.535016684    -2.587137694
 C        8.335486917    18.977045358    -2.310432070
 C        8.845271100    18.925525981    -1.015669479
 C        6.546655837    18.604955622    -3.960512953
 C        5.323679886    18.214859852    -4.357958249
 C        4.834285350    18.284196687    -5.730804880
 C        5.610472401    18.774267103    -6.784147810
 C        5.102362460    18.822611420    -8.082191645
 C        3.801747732    18.386789105    -8.353580435
 C        3.020788996    17.895364341    -7.298638431
 C        3.532725722    17.843077405    -6.005207747
Si        3.116322975    18.444008501   -10.061003296
 C        4.188383721    19.463587840   -11.197304179
 C        2.999193108    16.676029152   -10.756749449
 C        1.362343558    19.178729328    -9.975500828
 C        8.638570874    20.094226035     2.522172199
 C       10.538636323    17.792193152     1.713545789
 C       -3.620842395    13.253047657    -1.436222963
 C       -5.856190510    12.443553198     0.540637078
 C       -0.655485078    -0.902475456    -1.542728979
 C       -0.615276759    -0.922965559     1.546586279
 H        1.191886605     2.695995451     0.557814003
 H        0.261118850     4.938468769     0.547829299
 H       -3.597365615     3.378734471    -0.548713816
 H       -2.707541180     1.115456523    -0.553852867
 H       -3.390641632     5.685446293    -0.273350660
 H       -0.599721446     6.769567203     0.513451935
 H       -4.250446483     7.516915461    -0.309563620
 H       -5.180116840     9.759108551    -0.325411714
 H       -1.288343202    11.340344872     0.818305852
 H       -0.392773867     9.076676395     0.789582482
 H       -3.139563566    14.558244714     1.313647485
 H       -2.772027787    11.938804380     2.974819046
 H       -1.784575640    12.135995656     5.054291001
 H       -0.746380029    13.441373244     6.847270923
 H       -1.124589468    17.010757150     4.431794282
 H       -2.267714389    15.714546423     2.712629476
 H        0.643560695    17.917417327     7.381975478
 H       -0.717271499    18.037011319     6.254186685
 H        0.897774976    17.522344812     5.656855468
 H        3.260569128    11.659977585     6.962904173
 H        4.733894727    11.764808084     5.985171156
 H        3.186980980    12.418048716     5.345029331
 H        4.808997123    16.053846972     7.637781847
 H        6.088160683    17.686129606     6.331789259
 H        6.591582131    14.791187857     3.186224888
 H        5.272045438    13.173321335     4.445408306
 H        7.288515487    18.321492087     4.456151690
 H        7.660776129    16.172118651     2.222172023
 H        6.105871105    17.598943632     0.545821612
 H        5.244231003    17.690054033    -1.724331421
 H        8.956890634    19.365423303    -3.114909143
 H        9.866858368    19.282300380    -0.859301590
 H        7.263172701    19.010441670    -4.680791414
 H        4.607260637    17.809480573    -3.637299364
 H        6.624569664    19.123553313    -6.598744883
 H        5.757592956    19.214766192    -8.864915434
 H        1.997213889    17.541601716    -7.451135516
 H        2.911688885    17.456436614    -5.199366029
 H        1.155381283    16.040133203     8.418234718
 H        0.309266236    14.506807750     8.135072398
 H        1.638393064    14.177803896     5.976468926
 H        2.470734234    15.704442719     6.242564600
 H        3.435751630    14.844213381     8.426657004
 H        2.542491056    13.322433057     8.238832093
 H        2.263044757    -1.029549249    -0.047271861
 H        2.275514355     0.473305120     0.909173779
 H        2.260771603     0.548813849    -0.874089628
 H        3.747591356    19.529007855   -12.208079787
 H        5.199011477    19.031776487   -11.302904421
 H        4.299787312    20.495211111   -10.816834152
 H        2.643713111    16.791159700   -11.821462223
 C        4.363118534    15.961971265   -10.783378659
 C        1.990654373    15.783416350   -10.011888111
 H        0.768456511    18.484683343    -9.312158162
 C        1.339765677    20.577364537    -9.332769493
 C        0.656594742    19.242919621   -11.341633712
 H        8.953231749    19.970501736     3.598863960
 C        9.593920615    21.103904237     1.861110146
 C        7.213334462    20.676678958     2.501375855
 H       11.098650751    18.580487247     1.131947455
 C       11.167171704    17.697120927     3.114817883
 C       10.722010548    16.447319707     0.988048350
 H       -4.052821746    14.294102185    -1.388812594
 C       -2.112648002    13.373912764    -1.719484633
 C       -4.291059244    12.509403209    -2.604429465
 H       -6.295832994    11.838656485    -0.304112266
 C       -6.240180192    11.765225236     1.867873619
 C       -6.487460469    13.846618494     0.497271420
 H       -1.780223928    -0.903556574    -1.445777793
 C       -0.296714476    -0.171863935    -2.849366658
 C       -0.190636315    -2.366192445    -1.642583080
 H       -0.125259520    -1.938742353     1.510654701
 C       -0.187931162    -0.232855863     2.854993800
 C       -2.140171671    -1.130361294     1.574104795
 H        5.123844347    16.494935171   -11.368116211
 H        4.260022886    14.969834235   -11.245819642
 H        4.775377096    15.791220987    -9.778358414
 H        0.968853618    16.183362715   -10.014132734
 H        2.277800445    15.594882525    -8.967801057
 H        1.934173900    14.797173503   -10.495487797
 H        1.780032537    20.599100227    -8.325516247
 H        0.302648114    20.924655300    -9.221802696
 H        1.856673490    21.335455243    -9.935941019
 H        0.570660116    18.265141202   -11.833029358
 H        1.146651947    19.928903029   -12.045216340
 H       -0.370818856    19.614657947   -11.216067480
 H       10.649564542    20.810897091     1.924746227
 H        9.516347375    22.078808994     2.364144492
 H        9.358172777    21.287546945     0.803384151
 H        6.467686029    20.033575811     2.988340108
 H        6.853039421    20.881946445     1.482797642
 H        7.189789058    21.636871731     3.035371416
 H       11.150689774    18.646562365     3.665216286
 H       12.224407867    17.406643836     3.034472524
 H       10.687210084    16.937153334     3.748221622
 H       10.333652108    16.450534390    -0.040237965
 H       10.252271215    15.607195094     1.517788095
 H       11.791166531    16.203569996     0.910973104
 H       -1.568858158    13.943974423    -0.953770747
 H       -1.948443791    13.900083087    -2.670451125
 H       -1.617756156    12.397137979    -1.820260031
 H       -5.384420710    12.463093327    -2.521885600
 H       -3.920972265    11.481203666    -2.726236058
 H       -4.076698216    13.025203105    -3.551636454
 H       -5.873128935    10.733203928     1.954461344
 H       -7.333789656    11.712146644     1.962704344
 H       -5.880644629    12.317436100     2.748610325
 H       -6.325775265    14.368476884    -0.454425970
 H       -6.129725911    14.501160298     1.304570380
 H       -7.577209566    13.771952803     0.623979895
 H       -0.648408353     0.869547825    -2.874736412
 H       -0.768253843    -0.675788235    -3.705030527
 H        0.782188722    -0.161333908    -3.053306837
 H       -0.475429741    -2.973367609    -0.773644550
 H        0.894889797    -2.462790968    -1.776934890
 H       -0.651791320    -2.847254150    -2.517466282
 H        0.899176601    -0.117967634     2.953210054
 H       -0.512723094    -0.829990128     3.719148594
 H       -0.640489094     0.761294515     2.980805018
 H       -2.519517591    -1.692433148     0.711405484
 H       -2.698283090    -0.185275960     1.633457737
 H       -2.424107068    -1.709214985     2.465110981

