187   

Si        0.000000000     0.000000000     0.000000000
 C        1.865345211     0.000000000     0.000000000
 C       -0.674618062     1.712663812     0.000000000
 C        0.120298319     2.797882612    -0.382728195
 C       -0.397867790     4.092712668    -0.380181845
 C       -1.721628809     4.332241960    -0.002069629
 C       -2.518232784     3.243126395     0.376015690
 C       -2.003704082     1.949532658     0.375596034
 C       -2.305701006     5.669235894     0.015639659
 C       -1.651955511     6.793913337    -0.321627196
 C       -2.234885999     8.131433309    -0.304332747
 C       -1.435073657     9.218767401    -0.681999703
 C       -1.947016910    10.513181427    -0.681316800
 C       -3.276501893    10.749722640    -0.308116425
 C       -4.076575737     9.667001320     0.069453568
 C       -3.558234224     8.372239379     0.074116970
Si       -3.947220835    12.464235711    -0.309437875
 C       -5.770733953    12.424280499    -0.205851495
 C       -6.561386852    13.104460509     0.635111177
 C       -8.022927777    12.998886835     0.634194460
 C       -8.775053272    13.747381483     1.549971369
 C      -10.159510044    13.670380576     1.575357775
 C      -10.854353910    12.875029883     0.641632829
 C      -10.098326219    12.124251098    -0.281316523
 C       -8.711450750    12.174908550    -0.261356870
 N      -12.256934493    12.786514699     0.654210611
 C      -13.033604523    13.853841785     1.301087216
 C      -12.902166773    12.263931959    -0.562210104
 C      -13.007521832    15.188662424     0.536375233
 C      -13.928888654    16.249345892     1.165838600
 N      -13.651738351    16.597848127     2.579200534
 C      -12.274819456    16.625288897     2.912170099
 C      -11.433429139    17.457521248     2.144947478
 C      -10.079854843    17.524069249     2.425166634
 C       -9.527223781    16.793720095     3.489011154
 C      -10.369215124    15.993693824     4.263018934
 C      -11.731649319    15.915159802     3.992974362
 C      -14.539603684    15.908323707     3.530017120
 C       -8.089908764    16.901836786     3.739626406
 C       -7.450876822    16.254494634     4.722644870
Si       -5.657177235    16.375090141     5.053359722
 C       -4.690872329    16.699064235     3.520220274
 C       -5.238900332    16.443345499     2.257674577
 C       -4.501842587    16.690957146     1.102994385
 C       -3.194022172    17.186146548     1.180530559
 C       -2.644126932    17.431706135     2.442021734
 C       -3.382048938    17.188813191     3.599620436
 C       -2.463784643    17.428989010    -0.057838347
 C       -1.209699873    17.904583397    -0.135620207
 C       -0.496693362    18.140496086    -1.386749676
 C       -1.067910385    17.887144708    -2.636622001
 C       -0.352427414    18.126236304    -3.809518958
 C        0.955220693    18.619056679    -3.756776061
 C        1.530774271    18.873194104    -2.504357068
 C        0.811897919    18.638543418    -1.335495627
Si        1.912351908    18.939650489    -5.296269725
 C        1.096713538    18.163745582    -6.783585003
 C        2.047012367    20.816699711    -5.580436386
 C        3.665582077    18.234858156    -5.066017169
 C       -5.320030607    17.737771248     6.331310703
 C       -5.113558897    14.695531573     5.765370584
 C       -3.182164169    13.414975077     1.147964172
 C       -3.463245854    13.295141267    -1.953426606
 C       -0.621833341    -0.915716827    -1.548438345
 C       -0.653640900    -0.910752698     1.538843993
 H        1.162872930     2.673670119    -0.688069785
 H        0.243083889     4.920344552    -0.678559005
 H       -3.552122962     3.407501677     0.673805094
 H       -2.673042605     1.140213453     0.680152737
 H       -3.351826812     5.707648856     0.333009785
 H       -0.605711871     6.755391554    -0.638980503
 H       -0.401470604     9.052111713    -0.978302938
 H       -1.276164021    11.323317129    -0.981439982
 H       -5.119895851     9.795527892     0.375451938
 H       -4.198885360     7.545851386     0.375881649
 H       -6.209407027    11.751531004    -0.964004439
 H       -6.171157433    13.786681586     1.401698200
 H       -8.270008432    14.400525249     2.266624882
 H      -10.703359126    14.253169303     2.316079835
 H      -10.586756722    11.485746936    -1.009298365
 H       -8.155927040    11.566035331    -0.976877980
 H      -13.998880476    12.324867899    -0.473064386
 H      -12.649545532    11.192825197    -0.671680156
 H      -12.599258466    12.796899115    -1.478448169
 H      -15.588048463    16.122449196     3.257958895
 H      -14.384763704    16.326194286     4.541301578
 H      -14.405533860    14.816697430     3.572655016
 H      -11.854604638    18.046418945     1.333819539
 H       -9.437154857    18.158727153     1.813591706
 H       -9.963095883    15.418363650     5.096325217
 H      -12.356465378    15.283583958     4.616624969
 H       -7.581069993    17.583413107     3.043155223
 H       -7.995123036    15.597089006     5.419135546
 H       -6.248167891    16.035210996     2.131317737
 H       -4.954424118    16.496314801     0.130722446
 H       -1.629807261    17.815600369     2.529776578
 H       -2.898137168    17.400532245     4.556929556
 H       -3.024772360    17.201453867    -0.970801943
 H       -0.644039209    18.142851765     0.769082918
 H       -2.082214002    17.497387610    -2.705929430
 H       -0.852407219    17.909647378    -4.757673531
 H        2.549493641    19.257885711    -2.402052137
 H        1.275351281    18.843600663    -0.372359620
 H      -14.081156880    13.494454310     1.417455695
 H      -12.643593518    13.992725701     2.337186317
 H      -11.963423150    15.563246250     0.490494645
 H      -13.304614975    15.029419793    -0.516777361
 H      -13.838258925    17.198941272     0.584427211
 H      -14.989793455    15.932913773     1.070527936
 H        2.263382364    -1.029319412     0.047041503
 H        2.260024355     0.549195243     0.874272155
 H        2.275824997     0.473889240    -0.908674329
 H        1.697773114    18.324490030    -7.696470406
 H        0.093478784    18.586281230    -6.967796565
 H        0.983973002    17.072527803    -6.648918263
 H        2.598001031    20.937822384    -6.557790102
 C        0.670745622    21.492493571    -5.721558565
 C        2.847030641    21.550420337    -4.489194373
 H        4.109658560    18.790519121    -4.189390227
 C        3.656341378    16.735463126    -4.717266658
 C        4.582805124    18.461657620    -6.280846043
 H       -4.224726708    17.659467071     6.591385721
 C       -5.575841115    19.145458551     5.763767426
 C       -6.128901812    17.567319734     7.629416598
 H       -5.602274438    14.612867877     6.778511474
 C       -5.600295147    13.518526747     4.901849363
 C       -3.591861837    14.584846052     5.960003306
 H       -3.871433988    14.288017585     1.350979196
 C       -3.116656121    12.553837485     2.422458619
 C       -1.781320932    13.984648740     0.866830786
 H       -2.341473830    13.416393471    -1.919350416
 C       -3.810017083    12.428885816    -3.177679770
 C       -4.088870328    14.688308197    -2.135476446
 H       -0.144358142    -1.937232891    -1.513126167
 C       -2.149376663    -1.103611414    -1.575703919
 C       -0.185692931    -0.229622758    -2.856006606
 H       -1.778112764    -0.918926682     1.439677490
 C       -0.179960761    -2.372088941     1.634588829
 C       -0.301601844    -0.182712841     2.848779997
 H        0.064191662    21.081405674    -6.538695585
 H        0.797315161    22.562300723    -5.941701690
 H        0.071192430    21.436935377    -4.801580822
 H        3.876944841    21.186483022    -4.384664419
 H        2.368058560    21.498801287    -3.501286784
 H        2.923798997    22.619634885    -4.735474392
 H        3.060238795    16.501127793    -3.823708056
 H        4.678401832    16.391803881    -4.502981657
 H        3.284378496    16.106370488    -5.536797692
 H        4.696446540    19.520035662    -6.548706567
 H        4.247158227    17.923811940    -7.177394288
 H        5.594462614    18.090219549    -6.061196081
 H       -4.983496726    19.367623646     4.865036577
 H       -5.303205262    19.907870226     6.507315224
 H       -6.632278355    19.321530586     5.515321732
 H       -5.946095110    16.611384243     8.136359076
 H       -7.212683801    17.662522734     7.472911951
 H       -5.853535281    18.352332310     8.348858131
 H       -6.694376640    13.462203272     4.817509964
 H       -5.277926151    12.565217963     5.344190326
 H       -5.191192734    13.536657710     3.879941376
 H       -3.181005301    15.344929643     6.636142989
 H       -3.033808921    14.642565166     5.013840498
 H       -3.339434524    13.611394614     6.405626323
 H       -4.079064966    12.101649817     2.699090514
 H       -2.806019022    13.172593208     3.277143156
 H       -2.383050075    11.738671792     2.347847027
 H       -1.766502695    14.711111961     0.042337787
 H       -1.032277630    13.212188636     0.653611819
 H       -1.418303848    14.531319793     1.750279917
 H       -3.357453871    11.427772886    -3.145336561
 H       -3.434029433    12.904646027    -4.094353475
 H       -4.891140701    12.297958690    -3.318515692
 H       -3.823479251    15.383428586    -1.327516628
 H       -5.185351822    14.658087269    -2.204792771
 H       -3.731079360    15.142638890    -3.070006230
 H       -2.533498421    -1.673992580    -0.720611122
 H       -2.442613581    -1.665019145    -2.474719714
 H       -2.696091270    -0.150826695    -1.618776704
 H        0.902751936    -0.128692678    -2.954060925
 H       -0.625743055     0.770403612    -2.980423004
 H       -0.518189440    -0.821306575    -3.720912477
 H       -0.456035733    -2.976974335     0.761312720
 H       -0.642920862    -2.860071502     2.504635953
 H        0.905426073    -2.462144769     1.774340955
 H       -0.657812728     0.857150519     2.876595148
 H        0.776800800    -0.167857607     3.055170150
 H       -0.772844321    -0.691689844     3.701578250

