187   

Si        0.000000000     0.000000000     0.000000000
 C        1.865621151     0.000000000     0.000000000
 C       -0.679294953     1.710409687     0.000000000
 C        0.156236257     2.822945242    -0.138954226
 C       -0.374225876     4.113063803    -0.136986685
 C       -1.748912643     4.319032727    -0.000417624
 C       -2.585791855     3.203186696     0.138278826
 C       -2.058895755     1.915194284     0.140049537
 C       -2.349884938     5.647110467     0.007406825
 C       -1.674067562     6.802574753    -0.112395242
 C       -2.304618750     8.118214621    -0.100925342
 C       -3.685898786     8.274209715     0.038434268
 C       -4.261276121     9.542349122     0.046066970
 C       -3.468175524    10.684876263    -0.106398763
 C       -2.083231822    10.533379066    -0.246168170
 C       -1.508897824     9.263772468    -0.233030587
Si       -4.239846549    12.350860125    -0.094453715
 C       -3.678920849    13.406871779    -1.477437550
 C       -3.300369575    12.941201313    -2.674983001
 C       -2.851552071    13.792499540    -3.780137287
 C       -2.479498810    13.185516505    -4.990604380
 C       -2.048125899    13.944806158    -6.066015047
 C       -2.042402055    15.346851715    -5.971049391
 C       -2.426045628    15.962780616    -4.775463832
 C       -2.811136990    15.184853798    -3.686966430
 N       -1.581116083    16.055081245    -7.129172015
 C       -2.656732988    16.158524755    -8.146402519
 C       -0.936464117    17.348625363    -6.842290141
 C       -3.828058065    17.080417970    -7.748683074
 C       -5.099345731    16.803228785    -8.576544710
 N       -6.174441999    16.069977187    -7.868593892
 C       -5.796341627    14.735503672    -7.524359248
 C       -5.719905079    13.807251209    -8.578010011
 C       -5.359405127    12.493413113    -8.320563182
 C       -5.061679603    12.070514961    -7.016811204
 C       -5.173352069    12.993457963    -5.973815499
 C       -5.570080985    14.304739338    -6.212294998
 C       -6.763576919    16.851477758    -6.766457002
 C       -4.685128995    10.672282632    -6.790577500
 C       -4.382308395    10.167277354    -5.587887910
Si       -3.904741613     8.441068742    -5.223310843
 C       -4.899844344     7.766569339    -3.836157224
 C       -6.044391904     8.421137811    -3.373712865
 C       -6.783610649     7.887927807    -2.317786706
 C       -6.390263362     6.697964746    -1.700707817
 C       -5.241161403     6.044161956    -2.165550705
 C       -4.504778900     6.569976485    -3.222469283
 C       -7.130466014     6.102513307    -0.594150931
 C       -8.244859799     6.623038403    -0.053212255
 C       -8.983920402     6.025947074     1.053668724
 C       -8.590499167     4.832351703     1.664445962
 C       -9.326380294     4.295737896     2.720588812
 C      -10.477741734     4.939377120     3.184907056
 C      -10.874910989     6.136137778     2.573091505
 C      -10.135305460     6.672273785     1.522750745
Si      -11.460636849     4.244695331     4.577897326
 C      -10.953171267     2.493028195     4.969927957
 C      -11.205158601     5.316746171     6.130017310
 C      -13.301001840     4.304641850     4.095481784
 C       -4.132379752     7.336982149    -6.753898868
 C       -2.067265331     8.442026106    -4.730946301
 C       -6.133395820    12.199528982    -0.259507648
 C       -3.835366525    13.213173879     1.549999889
 C       -0.594550483    -0.928465558    -1.552502987
 C       -0.666575175    -0.896934928     1.540177736
 H        1.239487920     2.723820020    -0.250029179
 H        0.297472335     4.962834086    -0.243763188
 H       -3.659804167     3.342207967     0.249059593
 H       -2.758574154     1.082758144     0.256939014
 H       -3.438806051     5.653052516     0.126314344
 H       -0.587964675     6.809791131    -0.230143002
 H       -4.333246755     7.401939285     0.135132096
 H       -5.348089526     9.591446769     0.167163875
 H       -1.417299995    11.392386776    -0.371956511
 H       -0.430301186     9.163427303    -0.333076164
 H       -3.691213792    14.485770376    -1.260681269
 H       -3.279740849    11.867549522    -2.913678331
 H       -2.497906749    12.096798951    -5.084786126
 H       -1.727818880    13.468779485    -6.991817498
 H       -2.418648744    17.044515818    -4.685485258
 H       -3.092544019    15.679477685    -2.757699277
 H       -0.461521403    17.712547015    -7.769937639
 H       -0.133500921    17.192920626    -6.100552010
 H       -1.611525425    18.131605725    -6.467565147
 H       -7.196257589    17.776218469    -7.185688552
 H       -6.058535335    17.129422721    -5.967995882
 H       -7.593112940    16.275989942    -6.318890135
 H       -5.952978462    14.127943425    -9.591049568
 H       -5.306969176    11.783303709    -9.144846328
 H       -4.988453349    12.682237682    -4.942362826
 H       -5.655432469    14.994290549    -5.376926182
 H       -4.672841097    10.073051026    -7.709040858
 H       -4.407769128    10.803203714    -4.684313175
 H       -6.398805879     9.354922735    -3.822397618
 H       -7.675294816     8.410663202    -1.977454911
 H       -4.920945121     5.111781147    -1.703763357
 H       -3.613626273     6.018457736    -3.538554135
 H       -6.711920358     5.166209154    -0.213470518
 H       -8.666213476     7.557671678    -0.434271969
 H       -7.699691257     4.309664759     1.320049856
 H       -8.968668674     3.360185143     3.159515087
 H      -11.766761416     6.682523912     2.893183129
 H      -10.459036521     7.603210132     1.061102797
 H       -2.191320436    16.508251997    -9.092476679
 H       -3.035260913    15.127081546    -8.339598409
 H       -4.046900050    16.948064501    -6.670175670
 H       -3.528969141    18.136638766    -7.863040248
 H       -5.538391827    17.763727031    -8.929067128
 H       -4.849335469    16.228578131    -9.496443983
 H        2.263689691    -1.030347548     0.018110777
 H        2.263534428     0.524117999     0.887849267
 H        2.273002591     0.498223557    -0.897239889
 H      -11.580125048     2.067627880     5.773910515
 H       -9.902026384     2.436297422     5.303007926
 H      -11.062682098     1.841130501     4.084330824
 H      -11.781183502     4.802938163     6.953050478
 C       -9.727516055     5.392840690     6.556206522
 C      -11.751232858     6.748769116     5.988750695
 H      -13.539927820     5.394430122     3.922973621
 C      -13.591898606     3.546754921     2.787557870
 C      -14.242065757     3.784775503     5.196685289
 H       -3.578581704     7.851706387    -7.591734004
 C       -3.538272765     5.926760234    -6.590433321
 C       -5.610149365     7.204608071    -7.165797458
 H       -1.824298410     7.376725615    -4.447986328
 C       -1.130269975     8.859747730    -5.877869553
 C       -1.789113233     9.332618668    -3.510295242
 H       -6.466601828    11.511537975     0.570016648
 C       -6.866814211    13.541190219    -0.082621753
 C       -6.554434746    11.579280618    -1.603927350
 H       -4.358571635    14.212032276     1.515386202
 C       -4.358964200    12.441337583     2.773768850
 C       -2.328834464    13.472544428     1.728653207
 H       -0.063757422    -1.924235489    -1.529965401
 C       -2.109277063    -1.199222932    -1.579500385
 C       -0.201244152    -0.207010026    -2.854906395
 H       -1.791063522    -0.885624948     1.440261007
 C       -0.216140580    -2.365295215     1.638862202
 C       -0.303717920    -0.171252464     2.848481158
 H       -9.279797212     4.411101418     6.757464356
 H       -9.633185656     5.969783377     7.487427368
 H       -9.094689259     5.901079024     5.814371834
 H      -12.823034463     6.786553554     5.756711495
 H      -11.219211099     7.334405967     5.225846778
 H      -11.623828404     7.293608630     6.935722253
 H      -12.993624114     3.903578611     1.936915091
 H      -14.644412408     3.681194792     2.499910898
 H      -13.431054153     2.463963562     2.873711801
 H      -14.143541410     4.328343533     6.145245833
 H      -14.105241319     2.715895964     5.407732109
 H      -15.289183958     3.903602590     4.882096401
 H       -2.468306500     5.927573683    -6.345691502
 H       -3.636102166     5.367161623    -7.531903263
 H       -4.057732211     5.330448156    -5.827017874
 H       -6.103219541     8.168599639    -7.351373381
 H       -6.213545264     6.666549155    -6.420537023
 H       -5.692237979     6.630724141    -8.099350359
 H       -1.190506326     8.199350904    -6.751670183
 H       -0.085005136     8.825149884    -5.538439504
 H       -1.306272673     9.888202795    -6.224139083
 H       -2.452173279     9.126418246    -2.654513321
 H       -1.859352983    10.405451186    -3.734994307
 H       -0.767026249     9.162528461    -3.143023230
 H       -6.685254177    14.013715774     0.890793431
 H       -7.953450893    13.385848006    -0.146828243
 H       -6.615573722    14.272440151    -0.863349850
 H       -6.103432339    10.593034902    -1.791438283
 H       -6.312303782    12.221408815    -2.463512819
 H       -7.642862566    11.431051382    -1.626297615
 H       -5.447535180    12.300196558     2.767324225
 H       -4.126242171    12.993369377     3.695737027
 H       -3.895791262    11.450092434     2.885909729
 H       -1.883671258    14.050575430     0.907715122
 H       -1.747626088    12.545698268     1.838772376
 H       -2.153159970    14.053758514     2.645167179
 H       -2.467616339    -1.764994771    -0.710270386
 H       -2.366220252    -1.801263799    -2.463485279
 H       -2.705578142    -0.279343476    -1.654060638
 H        0.880028178    -0.047637340    -2.956524949
 H       -0.692692571     0.770141595    -2.966718632
 H       -0.506428441    -0.806269991    -3.724633130
 H       -0.503730092    -2.967926810     0.767687507
 H       -0.684680388    -2.843496305     2.511349938
 H        0.868050846    -2.472136431     1.776327895
 H       -0.645347000     0.873469048     2.874207518
 H        0.774668242    -0.171965999     3.055314260
 H       -0.783003963    -0.671412996     3.702140246

