187   

Si        0.000000000     0.000000000     0.000000000
 C        1.865155818     0.000000000     0.000000000
 C       -0.679592111     1.710979616     0.000000000
 C        0.120430028     2.804226474    -0.347277268
 C       -0.404028864     4.096674731    -0.344152630
 C       -1.738693363     4.325185962     0.000452928
 C       -2.540255508     3.228204708     0.343896948
 C       -2.019602080     1.937190312     0.342372688
 C       -2.330972028     5.658628337     0.017856387
 C       -1.676053876     6.791498637    -0.288187833
 C       -2.270296201     8.124172219    -0.270155818
 C       -1.470855193     9.223159080    -0.612510017
 C       -1.994221711    10.513331779    -0.609437694
 C       -3.335098518    10.733254765    -0.269770423
 C       -4.135515600     9.638664810     0.072723861
 C       -3.605650379     8.348811964     0.075621754
Si       -4.031438955    12.434919100    -0.264078985
 C       -5.856984135    12.358353164    -0.327676025
 C       -6.699355892    13.007423763     0.486141918
 C       -8.158373907    12.914473045     0.396189347
 C       -8.939577893    13.643179793     1.307087272
 C      -10.322170025    13.589667412     1.264435188
 C      -10.971851350    12.816417620     0.279301124
 C      -10.194533089    12.081334809    -0.628846089
 C       -8.806059281    12.120218287    -0.551741945
 N      -12.386740570    12.797641237     0.282076478
 C      -13.034741440    14.128565225     0.216864661
 C      -13.029474150    11.793691998    -0.581646186
 C      -12.314245264    15.185169128    -0.636619832
 C      -12.177256357    14.767952269    -2.111703624
 N      -11.194053277    15.574821192    -2.853133467
 C      -11.469835843    16.938245157    -3.039514609
 C      -12.802132577    17.405100951    -3.057037840
 C      -13.071860929    18.751674272    -3.241214438
 C      -12.042107259    19.676191809    -3.464429518
 C      -10.725200278    19.207209532    -3.479488603
 C      -10.435051369    17.864708556    -3.279892591
 C       -9.800054294    15.210655910    -2.545574142
 C      -12.383520707    21.087019102    -3.652710080
 C      -11.482662110    22.053645638    -3.872090439
Si      -11.847973353    23.827328226    -4.113885768
 C      -10.989413471    24.439129646    -5.621644387
 C      -10.563830563    23.539354214    -6.606427273
 C       -9.913729639    24.000598491    -7.748497907
 C       -9.682074854    25.369076211    -7.938691256
 C      -10.113636496    26.264960981    -6.956005038
 C      -10.761429758    25.806680964    -5.809794893
 C       -8.996857018    25.802513409    -9.151945043
 C       -8.710041701    27.079997680    -9.454839210
 C       -8.024722608    27.511852450   -10.668580146
 C       -7.593644185    26.616058448   -11.650336645
 C       -6.941931396    27.072467422   -12.796007858
 C       -6.700634873    28.437287608   -12.981091878
 C       -7.131284176    29.338030592   -11.997368439
 C       -7.786867678    28.879971323   -10.858056706
Si       -5.841868892    29.056172198   -14.487256575
 C       -5.056133882    27.664660266   -15.449688437
 C       -7.093873621    29.944431752   -15.612751123
 C       -4.517662978    30.311139704   -13.943949441
 C      -13.716768234    24.128253238    -4.296187086
 C      -11.219006513    24.787905224    -2.595947240
 C       -3.433851432    13.351620294     1.290752201
 C       -3.422140592    13.374340556    -1.802749559
 C       -0.617729008    -0.918513195    -1.548410824
 C       -0.654212412    -0.908158819     1.540003087
 H        1.171860027     2.688224852    -0.624434579
 H        0.240236024     4.930678044    -0.616410122
 H       -3.582773219     3.384163488     0.615072227
 H       -2.693215396     1.121002581     0.618261907
 H       -3.385712019     5.686393168     0.307259263
 H       -0.621477091     6.764390590    -0.577397124
 H       -0.428052094     9.069419631    -0.883186187
 H       -1.323378105    11.332104090    -0.883778253
 H       -5.188413207     9.753225640     0.350445997
 H       -4.246896135     7.513002597     0.349690094
 H       -6.234462077    11.711438847    -1.137686103
 H       -6.357187420    13.664359703     1.296340157
 H       -8.452042146    14.255658088     2.066578235
 H      -10.915095919    14.134807430     1.995370024
 H      -10.662295667    11.472432716    -1.396257603
 H       -8.221953841    11.527052801    -1.257390998
 H      -14.103718560    11.742686701    -0.330105551
 H      -12.606269967    10.797073325    -0.360284632
 H      -12.932986048    11.987960377    -1.660961217
 H       -9.723514043    14.132626797    -2.314957103
 H       -9.381765462    15.763975307    -1.688468645
 H       -9.173900618    15.396468073    -3.436875567
 H      -13.628159448    16.714650599    -2.918070083
 H      -14.107773201    19.092034820    -3.225664804
 H       -9.903327463    19.904238657    -3.653211118
 H       -9.398582431    17.543214425    -3.304109558
 H      -13.462883350    21.280155725    -3.600664610
 H      -10.404297404    21.824744602    -3.911148399
 H      -10.722317562    22.459744100    -6.513103880
 H       -9.585974392    23.286802473    -8.501968432
 H       -9.945888399    27.333055085    -7.079641885
 H      -11.074952187    26.553725053    -5.075497341
 H       -8.716906745    24.992979720    -9.832552223
 H       -8.990152323    27.889731182    -8.774874029
 H       -7.765199425    25.548089800   -11.528400551
 H       -6.629968798    26.323794312   -13.529433764
 H       -6.969507631    30.415878360   -12.087742533
 H       -8.115549767    29.594929474   -10.106190330
 H      -14.082499820    14.008734116    -0.133954492
 H      -13.101935659    14.496347503     1.269808100
 H      -12.856417992    16.148595641    -0.566640170
 H      -11.309284238    15.392297796    -0.215507471
 H      -11.860203381    13.701907737    -2.188190636
 H      -13.158994833    14.827193086    -2.631550901
 H        2.262463334    -1.029580674     0.050796836
 H        2.261179648     0.551868546     0.871915180
 H        2.275569607     0.469925036    -0.910817195
 H       -4.508102050    28.048461031   -16.328705228
 H       -5.808611020    26.944467384   -15.815806516
 H       -4.333230799    27.109259796   -14.824900366
 H       -6.517650485    30.237129539   -16.537711844
 C       -8.253156403    29.026965755   -16.042956168
 C       -7.682837632    31.224716054   -14.993897311
 H       -5.073498584    31.135778084   -13.409713739
 C       -3.505787307    29.707541826   -12.953172164
 C       -3.752451314    30.944006197   -15.119817481
 H      -14.197491779    23.644382969    -3.397172892
 C      -14.099815906    25.618980888    -4.295449309
 C      -14.295225803    23.470912896    -5.562682812
 H      -11.494704219    25.867371727    -2.773933709
 C      -11.882614210    24.337269567    -1.282772833
 C       -9.689957483    24.707924881    -2.439821641
 H       -3.972416775    14.343397820     1.292349069
 C       -3.797314016    12.604608984     2.586956729
 C       -1.920756860    13.633383640     1.291132441
 H       -2.299245871    13.432526548    -1.708222520
 C       -3.750489819    12.635644735    -3.112298312
 C       -3.968819198    14.810407613    -1.885383748
 H       -0.129087340    -1.935009625    -1.516295617
 C       -2.143041230    -1.122981464    -1.573170078
 C       -0.191718208    -0.225254698    -2.855543956
 H       -1.778796377    -0.915397352     1.441232363
 C       -0.181694994    -2.369600855     1.637799556
 C       -0.301530286    -0.178196912     2.848699831
 H       -7.922071109    28.123731293   -16.571436587
 H       -8.919413079    29.560836661   -16.735668198
 H       -8.880625971    28.706951160   -15.198551444
 H       -6.922778806    31.968878213   -14.724311996
 H       -8.292266030    31.025075251   -14.101230775
 H       -8.350854232    31.717163593   -15.715582898
 H       -3.978232765    29.282442647   -12.055942976
 H       -2.815971023    30.485894563   -12.596973149
 H       -2.881721589    28.923055073   -13.401294208
 H       -4.405166492    31.460281501   -15.835584739
 H       -3.150671901    30.216465201   -15.680411444
 H       -3.048028138    31.700999850   -14.745253831
 H      -13.805553010    26.144494404    -3.378150336
 H      -15.191612000    25.726146162    -4.372297782
 H      -13.679221299    26.169100902    -5.149092451
 H      -14.100409660    22.391496441    -5.626476873
 H      -13.916857146    23.926845480    -6.489183043
 H      -15.387469068    23.589801786    -5.585131675
 H      -12.974387633    24.450046685    -1.285969447
 H      -11.512900552    24.945917343    -0.445333296
 H      -11.657094711    23.292091292    -1.026294064
 H       -9.143050519    25.054152509    -3.328284849
 H       -9.336179653    23.694396903    -2.206036669
 H       -9.361645342    25.348414506    -1.608994803
 H       -4.871113429    12.396688539     2.689621534
 H       -3.514014521    13.206413385     3.462008572
 H       -3.267552046    11.646096223     2.688525374
 H       -1.590756375    14.246216370     0.442710067
 H       -1.314607938    12.716473773     1.301265173
 H       -1.643169518    14.191532528     2.197376746
 H       -3.356663950    11.609756149    -3.144201500
 H       -3.299761609    13.162499661    -3.965530671
 H       -4.828613336    12.584308989    -3.316735347
 H       -3.696666135    15.429854956    -1.020984364
 H       -5.062613809    14.847162639    -1.990536122
 H       -3.557427028    15.319286504    -2.768953242
 H       -2.520112931    -1.694375289    -0.715547738
 H       -2.431251915    -1.691085030    -2.469677474
 H       -2.700008122    -0.176440555    -1.619578876
 H        0.895395763    -0.111754194    -2.955383938
 H       -0.643195048     0.769895843    -2.977637287
 H       -0.518820447    -0.819110008    -3.721064745
 H       -0.458428154    -2.975561592     0.765407573
 H       -0.644739475    -2.856195853     2.508631058
 H        0.903685030    -2.460370400     1.777484637
 H       -0.659749191     0.860955871     2.875863610
 H        0.777105636    -0.161199640     3.053806923
 H       -0.770650637    -0.687008894     3.702807224

