187   

Si        0.000000000     0.000000000     0.000000000
 C        1.865360814     0.000000000     0.000000000
 C       -0.680321215     1.710391922     0.000000000
 C        0.129263459     2.810102207    -0.301392014
 C       -0.398015552     4.101410601    -0.298092561
 C       -1.745038241     4.322507536     0.000024064
 C       -2.555960951     3.219044690     0.297926428
 C       -2.032365353     1.929251209     0.297346387
 C       -2.340292620     5.654569644     0.015581808
 C       -1.676960688     6.793008844    -0.248624426
 C       -2.273684527     8.124498183    -0.232664856
 C       -3.621399781     8.342450409     0.065911732
 C       -4.151026332     9.632498635     0.069885609
 C       -3.345527968    10.732536711    -0.241287962
 C       -1.994255879    10.516961131    -0.543406694
 C       -1.465569822     9.229149306    -0.533206836
Si       -4.018553575    12.444802533    -0.243505591
 C       -3.204214954    13.499577447    -1.494607512
 C       -2.696949832    13.045808664    -2.649009561
 C       -2.045280303    13.891276641    -3.649726664
 C       -1.553004277    13.297908676    -4.821681318
 C       -0.928227531    14.052653206    -5.799953666
 C       -0.729353950    15.439359293    -5.613967249
 C       -1.222084222    16.035993578    -4.437059504
 C       -1.886379755    15.270079843    -3.488123756
 N       -0.095421112    16.185278173    -6.615203693
 C        1.003449578    15.550459787    -7.359965061
 C        0.062669389    17.627642013    -6.393171499
 C        2.092598751    14.878518236    -6.502432507
 C        3.061760682    15.855747287    -5.814433787
 N        3.970747376    16.614044007    -6.697839291
 C        3.423851370    17.808639759    -7.232045524
 C        3.067320683    18.818104481    -6.314559591
 C        2.527789455    20.010109895    -6.767517876
 C        2.366945487    20.253104853    -8.140812587
 C        2.751292187    19.262249353    -9.046373231
 C        3.284040887    18.054977315    -8.605437846
 C        4.719251517    15.768298992    -7.639729634
 C        1.790823907    21.531689943    -8.561241867
 C        1.585676792    21.884775508    -9.837173829
Si        0.863340197    23.490380159   -10.336479156
 C       -0.297994392    24.116240126    -9.054048471
 C       -1.076871557    23.203619833    -8.332043305
 C       -1.965136354    23.648161349    -7.354696366
 C       -2.104351005    25.012566399    -7.083549528
 C       -1.329930295    25.924008092    -7.812808050
 C       -0.438734625    25.482889913    -8.788576588
 C       -3.021967603    25.521393946    -6.069388126
 C       -3.816632110    24.752892312    -5.305315826
 C       -4.735677605    25.256560735    -4.290137288
 C       -4.878853148    26.618029931    -4.010809326
 C       -5.770325833    27.055052435    -3.030955082
 C       -6.533219144    26.136913385    -2.302710107
 C       -6.390809155    24.770597154    -2.580488625
 C       -5.505543955    24.338058834    -3.563717163
Si       -7.714079191    26.697543786    -1.006336562
 C       -7.430439136    28.482611512    -0.544882776
 C       -9.495815563    26.506063011    -1.647577911
 C       -7.499828364    25.581766935     0.520997908
 C        2.265790661    24.739254147   -10.632623647
 C       -0.090185190    23.241018491   -11.962731648
 C       -5.889582367    12.416226092    -0.587995050
 C       -3.725791436    13.215582673     1.471223274
 C       -0.612888152    -0.923290460    -1.547589333
 C       -0.655341599    -0.905533347     1.541002646
 H        1.190106668     2.699891115    -0.542501538
 H        0.254522051     4.940582922    -0.531949850
 H       -3.607979181     3.369274006     0.532978641
 H       -2.713232876     1.108255984     0.539173250
 H       -3.405024631     5.676598790     0.265746728
 H       -0.612280054     6.771607752    -0.498706667
 H       -4.271219928     7.502109405     0.302238483
 H       -5.210206843     9.740156254     0.318934622
 H       -1.317665665    11.341572037    -0.792644949
 H       -0.412709814     9.081497829    -0.765673658
 H       -3.172609515    14.569356573    -1.239203706
 H       -2.725979757    11.984061263    -2.932938924
 H       -1.675955416    12.224722385    -4.974156410
 H       -0.595774264    13.574429233    -6.716306973
 H       -1.091997472    17.097846754    -4.256966443
 H       -2.273285733    15.758983445    -2.592832101
 H        0.520367555    18.101326812    -7.281801745
 H        0.686820991    17.875968483    -5.519041996
 H       -0.934980872    18.087087821    -6.265920937
 H        5.231504324    14.971883766    -7.071390958
 H        5.503543303    16.376122556    -8.125708953
 H        4.104135254    15.298012348    -8.422368923
 H        3.229234549    18.656493921    -5.250412581
 H        2.244351338    20.778463311    -6.046540256
 H        2.638486340    19.430220512   -10.118108605
 H        3.575109543    17.305188209    -9.334621865
 H        1.531407387    22.185755260    -7.715624214
 H        1.862723953    21.220682168   -10.669003797
 H       -1.014871045    22.123239953    -8.503724519
 H       -2.555420137    22.918345709    -6.803306952
 H       -1.423951636    26.990610841    -7.617985304
 H        0.137729405    26.240544668    -9.326052377
 H       -3.027654039    26.609691275    -5.960784194
 H       -3.810656742    23.664342994    -5.415784691
 H       -4.293360008    27.352797726    -4.560315935
 H       -5.840379676    28.132687051    -2.858816399
 H       -6.960888217    24.007289638    -2.043266410
 H       -5.410974974    23.273046182    -3.767304458
 H        0.544830622    14.786076834    -8.033710852
 H        1.463797003    16.307198441    -8.035766644
 H        1.614902764    14.253456471    -5.718028784
 H        2.656432378    14.166313472    -7.133476421
 H        2.483535022    16.569950633    -5.186056010
 H        3.714303153    15.285097721    -5.109777997
 H        2.262600701    -1.029879090     0.043993003
 H        2.261461849     0.546000002     0.875533745
 H        2.275493315     0.475887601    -0.907828275
 H       -8.118347093    28.799502104     0.259348467
 H       -7.589430768    29.158267916    -1.403392976
 H       -6.399034667    28.637908145    -0.179428376
 H      -10.159344628    26.906942865    -0.827538644
 C       -9.758163727    27.331481287    -2.920486071
 C       -9.900895498    25.045347449    -1.915096605
 H       -7.734966118    24.533641663     0.173739285
 C       -6.056664560    25.586967125     1.056955008
 C       -8.463422925    25.923412385     1.671433449
 H        1.767268134    25.695381058   -10.965464429
 C        3.064731982    25.035866499    -9.350756063
 C        3.242568472    24.304095947   -11.739701713
 H        0.663922988    22.864100501   -12.712447332
 C       -1.202023742    22.184726774   -11.830770016
 C       -0.699820628    24.543044102   -12.510591446
 H       -6.351384033    11.803676614     0.239141062
 C       -6.532754283    13.814339938    -0.558109789
 C       -6.225524838    11.741517532    -1.930039427
 H       -4.161082579    14.255224580     1.424060503
 C       -4.430920288    12.452437428     2.605909311
 C       -2.228377495    13.339111654     1.806165914
 H       -0.122771161    -1.938956229    -1.510487465
 C       -2.137627731    -1.131450855    -1.577334354
 C       -0.183643002    -0.233672217    -2.855674684
 H       -1.779999320    -0.908255160     1.443272268
 C       -0.187965882    -2.368624142     1.638926142
 C       -0.298697313    -0.176178190     2.849039346
 H       -9.570653749    28.405146590    -2.791168929
 H      -10.812111259    27.237891249    -3.219398604
 H       -9.163494728    26.990824114    -3.780332565
 H       -9.830684251    24.403981992    -1.027535895
 H       -9.311539308    24.578818137    -2.717074702
 H      -10.949995537    25.001087449    -2.242425469
 H       -5.311929655    25.299996087     0.300827512
 H       -5.956463760    24.861630702     1.876970029
 H       -5.754248580    26.560000327     1.466254398
 H       -9.521200266    25.870462396     1.383133542
 H       -8.282835729    26.917934364     2.100478325
 H       -8.333429556    25.205834943     2.494715881
 H        2.443847097    25.408620349    -8.524327373
 H        3.816769648    25.813392749    -9.545791572
 H        3.616261860    24.159908404    -8.979195858
 H        2.759082990    24.151799523   -12.712994457
 H        3.791089121    23.385337348   -11.489271601
 H        4.004027636    25.082327820   -11.894977257
 H       -0.836936477    21.204780286   -11.494575528
 H       -1.680139470    22.017280801   -12.806449153
 H       -2.004982822    22.493227629   -11.145568182
 H        0.046250792    25.320598279   -12.718497392
 H       -1.457170898    24.976136727   -11.841326976
 H       -1.211621838    24.346587414   -13.463963460
 H       -6.401518533    14.334758268     0.398968254
 H       -7.617808271    13.731505945    -0.715600149
 H       -6.157218142    14.473518538    -1.353526558
 H       -5.852062765    10.711027921    -2.007004120
 H       -5.837670014    12.297766780    -2.796109572
 H       -7.314976273    11.685318369    -2.062598129
 H       -5.520932839    12.405536514     2.487763315
 H       -4.247833774    12.954143103     3.567165435
 H       -4.062326650    11.423256227     2.723443432
 H       -1.662620623    13.922087576     1.066608094
 H       -1.732488108    12.363172652     1.909469813
 H       -2.098389340    13.852841230     2.769147096
 H       -2.516074082    -1.702999709    -0.720488537
 H       -2.420951782    -1.701118329    -2.474443451
 H       -2.696818474    -0.186441149    -1.626995535
 H        0.903613721    -0.119566753    -2.952689697
 H       -0.635522016     0.760750202    -2.981945380
 H       -0.507928966    -0.830562025    -3.720144136
 H       -0.469254992    -2.974358863     0.767882241
 H       -0.650731891    -2.852381855     2.511498294
 H        0.897387696    -2.463287890     1.775947599
 H       -0.651135650     0.864943385     2.875249959
 H        0.779948812    -0.165259593     3.054232185
 H       -0.771115124    -0.681696539     3.703295852

