187   

Si        0.000000000     0.000000000     0.000000000
 C        1.865283384     0.000000000     0.000000000
 C       -0.673801098     1.713430907     0.000000000
 C        0.136812730     2.804331338     0.329907076
 C       -0.380889820     4.099305772     0.327656052
 C       -1.719404061     4.333321263     0.001905146
 C       -2.531464000     3.238936394    -0.324353586
 C       -2.017240642     1.945136074    -0.324460742
 C       -2.302578070     5.670958555    -0.013072483
 C       -1.632426300     6.798853941     0.277932334
 C       -2.210342050     8.138435222     0.264528557
 C       -3.547742097     8.380521661    -0.060102007
 C       -4.057630835     9.678755210    -0.059976228
 C       -3.241792484    10.762253656     0.279771460
 C       -1.900455196    10.522547427     0.607987271
 C       -1.391865703     9.226937363     0.595118633
Si       -3.879491538    12.487191035     0.290822371
 C       -3.113872888    13.474815684     1.627757307
 C       -2.693703776    12.952780349     2.787729053
 C       -2.079374051    13.727998992     3.867390668
 C       -1.682971781    13.054968648     5.034068483
 C       -1.097181997    13.738697170     6.085796396
 C       -0.922977422    15.136174799     6.012926768
 C       -1.313956389    15.811727012     4.847884697
 C       -1.865224648    15.105187488     3.783434894
 N       -0.316319882    15.771510151     7.125614435
 C       -1.054393303    15.644102072     8.398539541
 C        0.227180793    17.116511809     6.886258811
 C       -2.105724000    16.728099675     8.694301585
 C       -3.301172728    16.747478018     7.723497693
 N       -4.298834128    15.684391435     7.917211154
 C       -4.820049386    15.487040464     9.200005933
 C       -4.996750707    16.591307382    10.064204694
 C       -5.511903711    16.409517997    11.336942186
 C       -5.916433232    15.143543424    11.783987445
 C       -5.769170462    14.057425509    10.916348369
 C       -5.237910515    14.216245915     9.644047897
 C       -4.113758918    14.503406481     7.065109564
 C       -6.454180830    15.006025611    13.138240479
 C       -6.868960691    13.846282961    13.664632558
Si       -7.548375480    13.606122091    15.342995660
 C       -9.125233842    12.664413632    15.234112157
 C       -9.900139061    12.736985462    14.069559232
 C      -11.095501057    12.029410722    13.973939460
 C      -11.550916158    11.243065633    15.040437619
 C      -10.778213412    11.178621162    16.203484623
 C       -9.578321968    11.882272778    16.301336605
 C      -12.809835482    10.520735786    14.890930166
 C      -13.356863906     9.730772619    15.830364866
 C      -14.616181027     9.009601631    15.677883854
 C      -15.386418009     9.075990311    14.514012765
 C      -16.584870961     8.370032852    14.410338144
 C      -17.035221558     7.573620852    15.467784405
 C      -16.263482608     7.503637930    16.635676183
 C      -15.071136350     8.214708203    16.738612797
Si      -18.614483521     6.635788639    15.346765767
 C      -19.255976683     6.595133376    13.595506916
 C      -18.306510394     4.865378085    15.974964056
 C      -19.926184498     7.453004886    16.458096182
 C       -6.282840130    12.626256638    16.372863129
 C       -7.880101671    15.267484157    16.206233539
 C       -3.473622735    13.304688008    -1.377281765
 C       -5.765818400    12.497034996     0.536444990
 C       -0.655348543    -0.904465582    -1.541549674
 C       -0.618908292    -0.919716958     1.547014425
 H        1.191488670     2.684615904     0.593050892
 H        0.272317927     4.931233258     0.584857204
 H       -3.576959345     3.398926052    -0.580985885
 H       -2.698449175     1.131143369    -0.587770931
 H       -3.361122667     5.706347947    -0.286081763
 H       -0.573397223     6.761341012     0.550600341
 H       -4.204827493     7.552813806    -0.320084043
 H       -5.109469414     9.805837719    -0.329907840
 H       -1.215984955    11.333205506     0.880519457
 H       -0.346506298     9.060230522     0.848790632
 H       -3.034025515    14.552182633     1.420424233
 H       -2.771488603    11.880051146     3.017865353
 H       -1.823153430    11.975427716     5.108218979
 H       -0.754123047    13.200816478     6.967692375
 H       -1.183626636    16.885986412     4.760705699
 H       -2.147456961    15.646257919     2.879494887
 H        0.814484828    17.425611633     7.768812624
 H       -0.532341108    17.887714194     6.684671173
 H        0.924625647    17.076060467     6.030092680
 H       -3.746783127    14.806039601     6.066583995
 H       -5.090928675    14.010488426     6.907677716
 H       -3.402368499    13.768823249     7.477292570
 H       -4.731442025    17.590227433     9.732461500
 H       -5.619480379    17.272595258    11.994665549
 H       -6.076776261    13.060774037    11.238408945
 H       -5.137005043    13.344779747     9.005445165
 H       -6.489241801    15.955150113    13.688463575
 H       -6.814338300    12.909331226    13.084887709
 H       -9.594562764    13.337902697    13.206240620
 H      -11.682137403    12.092186218    13.059292225
 H      -11.109525698    10.574922548    17.046070760
 H       -9.016439977    11.792783263    17.234873265
 H      -13.307088658    10.664501001    13.926950885
 H      -12.860510989     9.586359917    16.794307965
 H      -15.055873125     9.684607375    13.674225412
 H      -17.144615290     8.463511600    13.475618844
 H      -16.564840812     6.896430281    17.493887468
 H      -14.486424194     8.148957065    17.654183965
 H       -1.534947405    14.641157875     8.445627376
 H       -0.284693677    15.655762640     9.208107635
 H       -2.471769563    16.580019462     9.732763455
 H       -1.629487938    17.726425356     8.696447100
 H       -3.836531051    17.723364574     7.819625457
 H       -2.936948775    16.708752943     6.671069125
 H        2.263289689    -1.029657942    -0.042647149
 H        2.275604442     0.477279918     0.907076101
 H        2.260613298     0.544978699    -0.876534792
 H      -20.182545167     5.997924809    13.524840835
 H      -18.515571566     6.140323143    12.912647819
 H      -19.483991036     7.607927827    13.219644994
 H      -17.964965370     4.972116362    17.045632374
 C      -19.567743364     3.983459978    15.968352843
 C      -17.189596237     4.149460835    15.194083974
 H      -20.875353803     6.866484325    16.289883080
 C      -19.589452983     7.392807342    17.958786364
 C      -20.196028351     8.918880883    16.071962854
 H       -6.732361036    12.521409067    17.402323697
 C       -6.036470782    11.212993368    15.815188921
 C       -4.933108288    13.351851959    16.514901591
 H       -6.909788824    15.841502872    16.158668862
 C       -8.963664410    16.095070144    15.490875387
 C       -8.272020911    15.115624236    17.686972061
 H       -3.887964787    14.352539217    -1.321032628
 C       -1.957702047    13.402842255    -1.625565722
 C       -4.131343497    12.593468614    -2.572457476
 H       -6.196368181    11.905897749    -0.322718090
 C       -6.186850661    11.812886966     1.849490866
 C       -6.375914234    13.909386700     0.493195356
 H       -1.780093124    -0.905599279    -1.444868364
 C       -0.296135810    -0.176079444    -2.849307517
 C       -0.190103536    -2.368291730    -1.638671925
 H       -0.133735092    -1.937836385     1.511723950
 C       -0.188793749    -0.231090745     2.855277874
 C       -2.144847833    -1.119544653     1.573427788
 H      -20.389897708     4.395681731    16.567532458
 H      -19.338467799     2.997666467    16.398681719
 H      -19.952683534     3.794245094    14.957549631
 H      -16.235673770     4.696216317    15.202333215
 H      -17.452685624     3.959625123    14.145088533
 H      -16.984350333     3.167664758    15.644056397
 H      -19.461614944     6.370464882    18.336342868
 H      -20.408201989     7.835419743    18.544810560
 H      -18.686442633     7.964056171    18.216525824
 H      -20.521939332     9.043528498    15.031338028
 H      -19.322675369     9.568810321    16.227049517
 H      -21.001026093     9.331150317    16.697125561
 H       -6.954153663    10.615472245    15.720706560
 H       -5.373157301    10.652159347    16.488754094
 H       -5.543368178    11.220832629    14.833342517
 H       -5.016749859    14.336906571    16.991645724
 H       -4.418896158    13.490408170    15.552969556
 H       -4.252728898    12.761693170    17.145121753
 H       -8.743413073    16.286155312    14.431624958
 H       -9.063567943    17.079726327    15.968532766
 H       -9.957601287    15.627082770    15.539738128
 H       -7.500609535    14.624827389    18.293802949
 H       -9.211954599    14.563016161    17.826548609
 H       -8.431094497    16.106302906    18.137044648
 H       -1.420718404    13.951686121    -0.840066381
 H       -1.763651559    13.940217382    -2.564799354
 H       -1.477762004    12.419016808    -1.731171494
 H       -5.227025698    12.566755459    -2.515015660
 H       -3.777979656    11.560539397    -2.704000323
 H       -3.886186362    13.120933307    -3.505829630
 H       -5.838442923    10.774148660     1.933156085
 H       -7.283079654    11.776019301     1.921245784
 H       -5.837160941    12.351077376     2.742691209
 H       -6.186078034    14.438005189    -0.449620205
 H       -6.027791977    14.551119292     1.314688839
 H       -7.469371582    13.848885023     0.594632437
 H       -0.647362100     0.865407142    -2.876531892
 H       -0.767586356    -0.681302162    -3.704261892
 H        0.782848105    -0.166346386    -3.052966346
 H       -0.475221863    -2.973975882    -0.768781409
 H        0.895510389    -2.464865493    -1.772326669
 H       -0.650780406    -2.850978216    -2.512907511
 H        0.898818352    -0.121621015     2.954060981
 H       -0.517035464    -0.826217220     3.719570419
 H       -0.636588552     0.765306282     2.980489651
 H       -2.525412286    -1.684964682     0.713459171
 H       -2.698698625    -0.171543277     1.626234013
 H       -2.432982601    -1.691754887     2.467416651

