187   

Si        0.000000000     0.000000000     0.000000000
 C        1.864885924     0.000000000     0.000000000
 C       -0.680569828     1.710239766     0.000000000
 C        0.121845342     2.805321084    -0.335421478
 C       -0.404140070     4.096990710    -0.332175959
 C       -1.740490338     4.321885926     0.007118261
 C       -2.544280814     3.223493703     0.340281369
 C       -2.023299832     1.932984127     0.333864267
 C       -2.334877845     5.653925679     0.024605440
 C       -1.681108206     6.788733931    -0.276198276
 C       -2.286810877     8.115336222    -0.255043121
 C       -1.497656022     9.223252317    -0.589775722
 C       -2.035433211    10.508293606    -0.582603560
 C       -3.385502497    10.705723662    -0.274649040
 C       -4.179978034     9.599207900     0.048748713
 C       -3.632937238     8.318188802     0.063622409
Si       -4.149054495    12.376393854    -0.249734868
 C       -5.873358477    12.226724975    -0.838947044
 C       -6.943442972    12.728923228    -0.210972103
 C       -8.319137673    12.599750991    -0.697361835
 C       -9.348517035    13.175885852     0.062078211
 C      -10.669285182    13.085499370    -0.348740925
 C      -10.983918426    12.419963798    -1.544561280
 C       -9.963078261    11.850920431    -2.313303677
 C       -8.640871340    11.946764030    -1.889940205
 N      -12.376891357    12.377917849    -1.886999735
 C      -13.073960865    11.268814865    -1.195370878
 C      -12.642967859    12.411708163    -3.336496528
 C      -12.701494079     9.862500078    -1.701700845
 C      -12.481305200     8.838262993    -0.572842584
 N      -11.121866963     8.780341144    -0.010024717
 C      -10.051646319     8.469461124    -0.864359297
 C      -10.269800840     7.948062884    -2.156464906
 C       -9.197383928     7.648564580    -2.982414422
 C       -7.877536742     7.743340571    -2.523703758
 C       -7.660537028     8.221380297    -1.227590828
 C       -8.720171322     8.593474349    -0.412844012
 C      -10.859393403     9.794411386     1.024765833
 C       -6.794069477     7.412404394    -3.448426219
 C       -5.488846145     7.457366456    -3.150045037
Si       -4.177525646     7.030312506    -4.353673088
 C       -4.717692418     7.413781545    -6.073264979
 C       -5.559363765     8.509937674    -6.300518159
 C       -5.983557140     8.823397710    -7.590322256
 C       -5.567464337     8.058776902    -8.684043380
 C       -4.717370179     6.969041824    -8.456322482
 C       -4.293942985     6.651731190    -7.167689272
 C       -5.985697574     8.349294666   -10.051381811
 C       -6.796034742     9.361328450   -10.405100817
 C       -7.214185683     9.651726651   -11.772489108
 C       -6.800900338     8.886330512   -12.865927274
 C       -7.224995902     9.199546009   -14.157238897
 C       -8.081208077    10.282051921   -14.381805331
 C       -8.499044182    11.050313513   -13.286576890
 C       -8.068246202    10.739455333   -11.999868914
Si       -8.649432215    10.707745686   -16.080042106
 C       -8.279572721     9.336700379   -17.289883056
 C      -10.522546360    11.040871840   -16.015529978
 C       -7.773417252    12.292514608   -16.665971380
 C       -2.613885728     8.003395993    -3.904810561
 C       -3.807357666     5.164758405    -4.254908092
 C       -4.070318428    13.046402408     1.527280406
 C       -3.219633267    13.573428122    -1.396780977
 C       -0.618870682    -0.906636219    -1.555078425
 C       -0.658590016    -0.912688626     1.534613369
 H        1.175173791     2.690794776    -0.605521604
 H        0.241071620     4.932678060    -0.596907618
 H       -3.588903389     3.377478178     0.606051131
 H       -2.698089300     1.114508748     0.600542641
 H       -3.391112745     5.679010856     0.312661292
 H       -0.626330629     6.767853981    -0.562289562
 H       -0.450653043     9.083181041    -0.850288257
 H       -1.370591056    11.337656536    -0.836360801
 H       -5.242387653     9.701412294     0.297875281
 H       -4.266561170     7.471562180     0.324155692
 H       -5.973015900    11.672803670    -1.788496382
 H       -6.873083635    13.286885195     0.731954396
 H       -9.110761250    13.703162425     0.985458573
 H      -11.468185620    13.540542446     0.234492746
 H      -10.192181188    11.329875789    -3.239544345
 H       -7.855649874    11.489020611    -2.495070677
 H      -13.716619099    12.620930302    -3.485079223
 H      -12.391519026    11.487158401    -3.877182974
 H      -12.079160305    13.245952582    -3.789213059
 H      -11.779276012    10.024306008     1.584622869
 H      -10.457459017    10.737182380     0.611075952
 H      -10.133220961     9.390480000     1.753475117
 H      -11.276031229     7.783737909    -2.526978701
 H       -9.393053468     7.299771143    -3.997492868
 H       -6.640783335     8.315857925    -0.849759897
 H       -8.511001619     8.981394094     0.579341037
 H       -7.160896744     7.115712067    -4.442579294
 H       -5.132183072     7.746224802    -2.149748870
 H       -5.912297704     9.149623212    -5.483392040
 H       -6.642966070     9.676129342    -7.739765698
 H       -4.380433357     6.361955664    -9.294056590
 H       -3.628724479     5.791695433    -7.052898148
 H       -5.585071523     7.667186278   -10.807002738
 H       -7.196306088    10.043626574    -9.649600251
 H       -6.138792200     8.035205724   -12.717562689
 H       -6.866052529     8.565385176   -14.972530315
 H       -9.168989870    11.907032836   -13.401328015
 H       -8.401904070    11.348852383   -11.162164062
 H      -12.858856861    11.365907133    -0.108035316
 H      -14.165988852    11.445421112    -1.311306255
 H      -13.487594843     9.491363709    -2.383888349
 H      -11.782687988     9.924311675    -2.322084080
 H      -13.197304827     9.020078521     0.259626047
 H      -12.721210543     7.813312305    -0.948565441
 H        2.262453466    -1.028388701     0.070108657
 H        2.261142863     0.568081045     0.861301778
 H        2.274939867     0.452663175    -0.919694444
 H       -8.687271566     9.567694609   -18.290180088
 H       -8.731741472     8.383925933   -16.959606062
 H       -7.193520794     9.173330559   -17.403159020
 H      -10.658033637    11.905202680   -15.301892470
 C      -11.120979753    11.453243717   -17.372165629
 C      -11.315441126     9.844185951   -15.459609454
 H       -8.115928338    12.453594912   -17.729233375
 C       -8.148370371    13.543934977   -15.852062380
 C       -6.240205408    12.150937413   -16.676970820
 H       -2.400806233     7.752035795    -2.821817527
 C       -1.379939760     7.610033526    -4.733778430
 C       -2.826160196     9.524013310    -4.004062335
 H       -3.009257921     4.970866868    -5.029110278
 C       -3.260880554     4.710304531    -2.894345121
 C       -5.036806503     4.307467206    -4.607840999
 H       -4.633627173    14.024247450     1.518374417
 C       -4.750634880    12.111593259     2.544252707
 C       -2.633426232    13.330873918     1.999973820
 H       -2.154162981    13.596618593    -1.025647296
 C       -3.204917593    13.105606861    -2.862302352
 C       -3.773339971    15.008499569    -1.337020203
 H       -0.125727445    -1.921316227    -1.533844159
 C       -2.143172259    -1.118830888    -1.577795271
 C       -0.199177204    -0.199994260    -2.857286682
 H       -1.783200141    -0.916012127     1.434111204
 C       -0.191531032    -2.376314124     1.625915752
 C       -0.306347203    -0.189890153     2.847359779
 H      -10.663594669    12.359117021   -17.790668087
 H      -12.192239990    11.674385746   -17.258254648
 H      -11.050954214    10.662124654   -18.130330819
 H      -10.986821750     9.535396051   -14.456810666
 H      -11.270427172     8.959886711   -16.108960485
 H      -12.379030175    10.106083204   -15.367073410
 H       -9.218770834    13.782434102   -15.890949074
 H       -7.623606655    14.423683579   -16.252449662
 H       -7.855999452    13.470335658   -14.795101674
 H       -5.882578838    11.341584930   -17.326348221
 H       -5.818740725    11.984827877   -15.674981690
 H       -5.778590095    13.074470533   -17.054794338
 H       -1.090897642     6.558806930    -4.604197028
 H       -0.512017567     8.208697060    -4.422270934
 H       -1.508088410     7.793376930    -5.809361798
 H       -3.670907065     9.882758822    -3.397419309
 H       -2.982354095     9.868007104    -5.035356927
 H       -1.935483116    10.049293519    -3.629609717
 H       -2.317240879     5.201274232    -2.618396944
 H       -3.046200406     3.631811748    -2.910061708
 H       -3.970740436     4.867707631    -2.070716024
 H       -5.444323737     4.517296551    -5.605905272
 H       -5.857400371     4.422910096    -3.884950949
 H       -4.767811422     3.241981549    -4.601908470
 H       -5.801747392    11.895932733     2.308727517
 H       -4.745412228    12.572333647     3.542036067
 H       -4.231322298    11.147889705     2.649378369
 H       -2.122825670    14.096218035     1.401330610
 H       -1.998292150    12.433767954     2.010222741
 H       -2.644250470    13.707311395     3.033297568
 H       -2.789482392    12.096612618    -2.995361197
 H       -2.577808811    13.776830075    -3.466280162
 H       -4.201895234    13.118664953    -3.325155741
 H       -3.708626680    15.459074612    -0.338384040
 H       -4.819262744    15.079952056    -1.668315825
 H       -3.195744406    15.662755161    -2.005988346
 H       -2.509274346    -1.725701336    -0.739993968
 H       -2.434407499    -1.654364301    -2.493268291
 H       -2.707394337    -0.175457190    -1.584151555
 H        0.888420116    -0.104494784    -2.969427814
 H       -0.634625022     0.804570035    -2.958592901
 H       -0.547558846    -0.774929940    -3.727334206
 H       -0.485594596    -2.980607840     0.757989896
 H       -0.643316584    -2.860279026     2.504155276
 H        0.895305324    -2.473322428     1.748607626
 H       -0.669286766     0.847295247     2.882008026
 H        0.772577666    -0.169534958     3.050643869
 H       -0.771591759    -0.706450094     3.699031291

