187   

Si        0.000000000     0.000000000     0.000000000
 C        1.865373223     0.000000000     0.000000000
 C       -0.663551065     1.717600051     0.000000000
 C        0.074616461     2.758739482     0.573755168
 C       -0.421181628     4.061863676     0.577594395
 C       -1.667160865     4.354209554     0.015932826
 C       -2.408249539     3.309512399    -0.551546358
 C       -1.915732786     2.006907084    -0.556901593
 C       -2.224242685     5.702898811    -0.001879596
 C       -1.614955385     6.786915942     0.507805935
 C       -2.166737697     8.137463504     0.492976570
 C       -3.411288883     8.438512855    -0.066309899
 C       -3.899278310     9.745216265    -0.057914122
 C       -3.158786553    10.776505677     0.527474582
 C       -1.911577358    10.476817126     1.092816129
 C       -1.421366369     9.174388894     1.070363947
Si       -3.765872518    12.513150834     0.559953092
 C       -3.309112115    13.349460296     2.120518309
 C       -3.164088049    12.713319270     3.291040415
 C       -2.799201397    13.368658736     4.547257676
 C       -2.679051463    12.588537004     5.706489451
 C       -2.336298913    13.157020489     6.921767684
 C       -2.045285277    14.536388352     7.010400837
 C       -2.162856899    15.319417196     5.845404823
 C       -2.555482517    14.740974886     4.645290004
 N       -1.698721081    15.104431987     8.246306228
 C       -1.028741640    14.241470155     9.231596014
 C       -1.175892333    16.479682222     8.237242183
 C        0.357852794    13.750628278     8.774140507
 C        0.908665805    12.643069280     9.689017876
 N        1.339053202    13.083043417    11.030649552
 C        0.307514855    13.498552405    11.903301718
 C       -0.812455798    12.655468089    12.067392647
 C       -1.845927584    13.022703932    12.911989891
 C       -1.782594636    14.208568048    13.660357161
 C       -0.659446003    15.025550986    13.518782283
 C        0.377678484    14.680579254    12.658519243
 C        2.547700310    13.922254164    10.993238912
 C       -2.905078104    14.546283815    14.537208094
 C       -2.962870435    15.646628479    15.299437441
Si       -4.371933448    16.057230005    16.391325412
 C       -5.953730340    15.391012800    15.730023194
 C       -6.148705584    15.327238402    14.343598086
 C       -7.337573651    14.826879668    13.820554187
 C       -8.365722752    14.390457361    14.666802544
 C       -8.171729002    14.463476702    16.048798233
 C       -6.979947958    14.960231513    16.576316056
 C       -9.592689417    13.874227948    14.069565856
 C      -10.651137593    13.420830959    14.762365330
 C      -11.876857826    12.905153606    14.161597496
 C      -12.066136180    12.834137213    12.779051273
 C      -13.254206655    12.333967268    12.246492293
 C      -14.283758194    11.900169225    13.087450092
 C      -14.096829095    11.971247490    14.474669743
 C      -12.907340165    12.464949434    15.003196420
Si      -15.857525070    11.237618629    12.399818938
 C      -16.017132029    11.602076661    10.577346032
 C      -15.915559803     9.352004964    12.653433502
 C      -17.304333027    12.022229041    13.356300736
 C       -4.032558544    15.355063128    18.126166767
 C       -4.506667225    17.950630036    16.512111712
 C       -2.982222105    13.464298822    -0.889146893
 C       -5.657952166    12.559848071     0.366482937
 C       -0.648336989    -0.923883504    -1.533138381
 C       -0.632230335    -0.902977935     1.551351521
 H        1.055475160     2.592486240     1.027982679
 H        0.175285314     4.854430118     1.025857723
 H       -3.381539464     3.514792031    -0.993223233
 H       -2.540421646     1.233429304    -1.011885847
 H       -3.207559854     5.786450955    -0.473366731
 H       -0.631035255     6.701152064     0.978743440
 H       -4.011042205     7.651468442    -0.519134938
 H       -4.875057281     9.920443072    -0.518808962
 H       -1.289955322    11.244991705     1.565660642
 H       -0.449227427     8.961071203     1.510639986
 H       -3.175764505    14.438120135     2.039924540
 H       -3.301555594    11.627145325     3.396164982
 H       -2.871602624    11.515761547     5.655930065
 H       -2.288848892    12.528705016     7.806709038
 H       -1.957563601    16.384288858     5.870167992
 H       -2.656472323    15.374015403     3.762533472
 H       -0.948751073    16.802415649     9.267941604
 H       -1.956685907    17.163130851     7.855472731
 H       -0.265678406    16.597697490     7.627882373
 H        3.315656153    13.425405308    10.375363681
 H        2.963549257    14.006092210    12.013610104
 H        2.380599564    14.934337311    10.592354111
 H       -0.862019353    11.710321394    11.532026517
 H       -2.715364376    12.370334058    13.008376227
 H       -0.585616986    15.952714490    14.088582889
 H        1.229803059    15.346604268    12.571476262
 H       -3.715405059    13.803260208    14.505874855
 H       -2.135267898    16.371028948    15.323273290
 H       -5.382733393    15.658642006    13.633649127
 H       -7.468093765    14.778323870    12.740749390
 H       -8.954563899    14.131840540    16.728165917
 H       -6.887092602    14.993072839    17.665129427
 H       -9.604192149    13.877032316    12.975343918
 H      -10.640828040    13.417710926    15.856104644
 H      -11.282373938    13.169870805    12.102238683
 H      -13.342871394    12.301533630    11.156973073
 H      -14.866723588    11.647118561    15.180536737
 H      -12.779934700    12.510311296    16.083064776
 H       -0.946292597    14.806742660    10.189879305
 H       -1.696873337    13.379817301     9.462497480
 H        0.288775403    13.361007462     7.737703082
 H        1.062122375    14.599375016     8.723854191
 H        0.153050715    11.833292054     9.807037603
 H        1.787343535    12.160458809     9.199946016
 H        2.263745532    -1.028827647    -0.054213757
 H        2.277761139     0.468863716     0.910205690
 H        2.258243306     0.555396226    -0.871351725
 H      -16.984985404    11.244000496    10.183285010
 H      -15.218785818    11.114861183     9.990610625
 H      -15.962416673    12.688973605    10.384559498
 H      -16.867007806     9.007008371    12.154526280
 C      -14.734365719     8.630054249    11.979354780
 C      -15.972727479     8.928757545    14.132114762
 H      -17.162642445    11.719561368    14.434589530
 C      -17.286973585    13.560253567    13.293151557
 C      -18.685658823    11.517065048    12.903167313
 H       -4.903288349    15.674522065    18.768712897
 C       -3.971567712    13.817038764    18.131442463
 C       -2.745035474    15.907676094    18.763308178
 H       -3.522379918    18.307961648    16.931713953
 C       -4.707062382    18.609143692    15.135227310
 C       -5.627385394    18.417256679    17.457331235
 H       -3.389729907    14.514584638    -0.829003650
 C       -1.448775489    13.540102248    -0.778075285
 C       -3.355692155    12.884166892    -2.264371464
 H       -5.884749208    12.053264640    -0.615674039
 C       -6.378896213    11.785352746     1.484474530
 C       -6.226378021    13.988976777     0.304986767
 H       -1.773937143    -0.916500402    -1.447460430
 C       -0.270075825    -0.221773114    -2.849984261
 C       -0.193514666    -2.392879292    -1.601656277
 H       -0.169664183    -1.931438933     1.519702973
 C       -0.187515755    -0.219566844     2.857377018
 C       -2.162574440    -1.067308064     1.575635175
 H      -14.669427716     8.813427742    10.899116799
 H      -14.839111728     7.542271574    12.100119946
 H      -13.763119915     8.896256511    12.420939110
 H      -16.838643226     9.336019654    14.669163650
 H      -15.067425209     9.205939267    14.690456400
 H      -16.053803676     7.834393801    14.206058278
 H      -16.347165361    13.998749684    13.658432572
 H      -18.084822579    13.972822761    13.926992201
 H      -17.462777240    13.950592016    12.281981487
 H      -18.799772053    10.428608507    12.987469831
 H      -18.927315437    11.799710084    11.869989056
 H      -19.471675556    11.957893188    13.533558198
 H       -4.883500891    13.341859175    17.743984026
 H       -3.844343394    13.447252745    19.158554199
 H       -3.123361444    13.421304191    17.554011419
 H       -2.744891997    16.999831953    18.869859592
 H       -1.838768272    15.623677351    18.210278238
 H       -2.624279179    15.501168294    19.777948981
 H       -3.913507211    18.367261916    14.415323737
 H       -4.708162972    19.703590867    15.237247679
 H       -5.668138372    18.343668602    14.671207482
 H       -5.504265291    18.062205941    18.488421446
 H       -6.628277524    18.115210532    17.116680174
 H       -5.641612099    19.515535598    17.510805441
 H       -1.101248329    13.997027697     0.158544772
 H       -1.041894819    14.156793850    -1.591925844
 H       -0.965473840    12.556536844    -0.867743878
 H       -4.435864520    12.883917379    -2.458449202
 H       -2.989661545    11.857660393    -2.409861810
 H       -2.900582180    13.486922284    -3.063568660
 H       -6.069310123    10.733828043     1.559170878
 H       -7.462113390    11.775346892     1.299592195
 H       -6.239372003    12.240362878     2.476251395
 H       -5.821841193    14.583859564    -0.523633456
 H       -6.064895908    14.553295569     1.234271020
 H       -7.314921409    13.953708063     0.153551247
 H       -0.605213647     0.824138160    -2.897627856
 H       -0.741638739    -0.734802908    -3.700172087
 H        0.810627084    -0.230634255    -3.045122490
 H       -0.494439355    -2.982614892    -0.726147479
 H        0.892803914    -2.500298681    -1.720171892
 H       -0.647300042    -2.885522468    -2.473925176
 H        0.902300667    -0.137757724     2.957658700
 H       -0.532354678    -0.802692247     3.723425617
 H       -0.611079559     0.788006623     2.977574845
 H       -2.552812884    -1.638115585     0.723512689
 H       -2.695223797    -0.106138169     1.608565100
 H       -2.467416326    -1.617255178     2.477864891

