187   

Si        0.000000000     0.000000000     0.000000000
 C        1.865251227     0.000000000     0.000000000
 C       -0.675636840     1.712545026     0.000000000
 C        0.120807894     2.798411758     0.377839272
 C       -0.397406759     4.093199470     0.375558898
 C       -1.722421037     4.331991786     0.001624927
 C       -2.520592910     3.242525288    -0.371911719
 C       -2.006101492     1.948854100    -0.371109066
 C       -2.306315254     5.669222320    -0.015523367
 C       -1.650608563     6.793733189     0.318437447
 C       -2.232000150     8.131954422     0.302168187
 C       -3.557281865     8.373583723    -0.071507071
 C       -4.071909594     9.669174256    -0.072601509
 C       -3.266886160    10.753096009     0.294651273
 C       -1.939172626    10.515162501     0.670181367
 C       -1.430968449     9.218488104     0.676927833
Si       -3.941383320    12.463549548     0.294672502
 C       -2.571845722    13.674199128     0.274436272
 C       -2.439092815    14.719383008     1.100999270
 C       -1.324057811    15.667473109     1.050962959
 C       -1.295935516    16.725592434     1.973215125
 C       -0.265009055    17.649053358     1.968821252
 C        0.762455599    17.562419673     1.004740037
 C        0.738990026    16.503469989     0.083234919
 C       -0.282901801    15.560792904     0.127100468
 N        1.791685624    18.528511916     1.042430846
 C        1.346395150    19.940350035     1.072369172
 C        2.949518440    18.295772204     0.164784203
 C        0.093066118    20.266673279     0.244121940
 C        0.284878940    20.015361107    -1.262328051
 N       -0.984974925    19.826304509    -1.987349759
 C       -1.906161003    20.888510718    -1.955165147
 C       -1.448219651    22.221597731    -1.877655574
 C       -2.350219739    23.272901756    -1.845577513
 C       -3.730536000    23.049519149    -1.945674298
 C       -4.180478264    21.730885040    -2.056750391
 C       -3.292114743    20.664085155    -2.068556516
 C       -1.534897675    18.468119318    -1.830692367
 C       -4.640034566    24.195844911    -1.906304031
 C       -5.973047670    24.098420648    -1.993337669
Si       -7.156748286    25.489500292    -1.950309386
 C       -8.482613185    25.138224765    -0.723986496
 C       -8.285171633    24.178921579     0.276711371
 C       -9.288556121    23.912740932     1.205166286
 C      -10.506542372    24.603574800     1.163147952
 C      -10.697777883    25.564704357     0.166135309
 C       -9.697467533    25.830931777    -0.767625967
 C      -11.526743294    24.288964049     2.157858496
 C      -12.735189369    24.872819129     2.226409777
 C      -13.755011908    24.557819122     3.221338360
 C      -13.564599932    23.597329749     4.218116620
 C      -14.567090195    23.327729719     5.149676238
 C      -15.786710716    24.010029109     5.100041620
 C      -15.980455953    24.973369767     4.100723884
 C      -14.975990152    25.244283095     3.175803397
Si      -17.119206920    23.665200781     6.322426728
 C      -16.795383434    22.087138894     7.262973204
 C      -17.228775850    25.106161519     7.561406678
 C      -18.773060951    23.545390557     5.387481857
 C       -6.290367201    27.116837822    -1.483537423
 C       -7.931151180    25.682637908    -3.677793205
 C       -4.994003422    12.730470150    -1.268147678
 C       -5.046662108    12.700687253     1.823595582
 C       -0.652235574    -0.908850857    -1.540520261
 C       -0.621917026    -0.917523460     1.547109874
 H        1.164619720     2.674725282     0.679535262
 H        0.244553747     4.921256839     0.670775615
 H       -3.555582001     3.406226656    -0.666017746
 H       -2.676612415     1.138835583    -0.671378711
 H       -3.353582739     5.707398096    -0.328971893
 H       -0.603193031     6.754439379     0.632225651
 H       -4.200918548     7.546642892    -0.365328062
 H       -5.115730816     9.796472441    -0.372516500
 H       -1.266901366    11.325463999     0.970581701
 H       -0.397725070     9.050999241     0.975476317
 H       -1.829471218    13.477094835    -0.517114489
 H       -3.164000597    14.947114530     1.893521591
 H       -2.091742106    16.817399782     2.713466906
 H       -0.238089773    18.441086131     2.713633400
 H        1.515044643    16.403519824    -0.668850664
 H       -0.270446307    14.735796713    -0.587167831
 H        3.754901988    18.999873862     0.439526191
 H        2.738631989    18.408646554    -0.910081142
 H        3.345281955    17.279358295     0.344118207
 H       -0.719056033    17.724190543    -1.810733866
 H       -2.166736480    18.230846876    -2.705302566
 H       -2.126176643    18.334883028    -0.909259670
 H       -0.384289488    22.434004271    -1.836724845
 H       -1.974185188    24.292609297    -1.757938930
 H       -5.249762296    21.527394344    -2.137237391
 H       -3.685718931    19.656111722    -2.156249803
 H       -4.119999698    25.156070806    -1.793772965
 H       -6.462740933    23.117675919    -2.116089621
 H       -7.351853860    23.612500797     0.360892622
 H       -9.120132801    23.159964104     1.972917322
 H      -11.634956687    26.115229005     0.111408951
 H       -9.905039574    26.591501725    -1.525309859
 H      -11.240636262    23.516057745     2.877353369
 H      -13.021502065    25.645400400     1.506852139
 H      -12.626138717    23.049002779     4.276117069
 H      -14.359285533    22.565991337     5.906223800
 H      -16.913285286    25.537463024     4.012609447
 H      -15.144610069    25.996887831     2.407934272
 H        1.148031136    20.185160177     2.144614673
 H        2.187529579    20.596058141     0.758883827
 H       -0.770002482    19.673889266     0.610992643
 H       -0.198011010    21.321386586     0.416382609
 H        0.840818140    20.855920867    -1.734249434
 H        0.909785908    19.109163483    -1.431800182
 H        2.263104770    -1.029329292    -0.050533282
 H        2.276163823     0.470631666     0.910216043
 H        2.260104371     0.551744248    -0.872546688
 H      -17.622948841    21.862024069     7.959226918
 H      -15.867448369    22.147822642     7.858106667
 H      -16.699021680    21.228466494     6.573898859
 H      -18.018934861    24.806080304     8.308881483
 C      -15.910024840    25.329843704     8.324073221
 C      -17.659906425    26.437870138     6.921361541
 H      -18.921764145    24.549013434     4.892442151
 C      -18.748659837    22.474691207     4.281706966
 C      -19.981158202    23.290139768     6.306151196
 H       -5.427800451    27.225698630    -2.203086508
 C       -7.192008672    28.355367064    -1.632174494
 C       -5.722474288    27.088807789    -0.052531253
 H       -8.628610199    26.566864417    -3.608753881
 C       -6.892087688    25.979176423    -4.773205754
 C       -8.761479972    24.454707584    -4.091905599
 H       -5.844225522    11.991733420    -1.200473978
 C       -5.595676581    14.144176209    -1.353155604
 C       -4.213261544    12.438000909    -2.561787311
 H       -5.344006276    13.789404381     1.825195818
 C       -6.333584294    11.857492091     1.785188327
 C       -4.300994533    12.403735086     3.137546909
 H       -1.777042345    -0.912842712    -1.445010191
 C       -0.293497279    -0.182186068    -2.849402081
 C       -0.183504961    -2.371788898    -1.634590958
 H       -0.140734299    -1.937455027     1.512558034
 C       -0.190433463    -0.229985196     2.855438469
 C       -2.148777573    -1.110871114     1.571654586
 H      -15.570864278    24.445481059     8.878634633
 H      -16.036164129    26.129154849     9.068432992
 H      -15.086468332    25.647557400     7.668365695
 H      -18.637987589    26.387473530     6.426530506
 H      -16.930681847    26.816034374     6.190982334
 H      -17.748101351    27.214672696     7.695005635
 H      -17.941719622    22.624851064     3.550132530
 H      -19.688218662    22.499917810     3.711534267
 H      -18.652900798    21.453701465     4.674318044
 H      -20.105435170    24.054454063     7.084138101
 H      -19.942634886    22.311141687     6.801982926
 H      -20.909310229    23.298897966     5.716280433
 H       -7.560471491    28.505921567    -2.654805095
 H       -6.627865221    29.263352015    -1.373609252
 H       -8.061282189    28.335526953    -0.959880995
 H       -5.034394374    26.252413884     0.131579146
 H       -6.508073845    27.041275533     0.715502647
 H       -5.152983230    28.007446503     0.146098314
 H       -6.312701848    26.892862616    -4.588472753
 H       -7.394794202    26.123921350    -5.740044546
 H       -6.177481951    25.156091687    -4.918569143
 H       -9.557680098    24.205802849    -3.376227858
 H       -8.150274567    23.553145683    -4.235890669
 H       -9.261292883    24.644580047    -5.052384163
 H       -6.242833598    14.393449414    -0.502284497
 H       -6.223251810    14.232339799    -2.251597768
 H       -4.831782324    14.930984195    -1.432665297
 H       -3.785624169    11.425758273    -2.592853658
 H       -3.395818465    13.149998193    -2.739424190
 H       -4.882455233    12.513792048    -3.430747899
 H       -6.975018450    12.079153360     0.922845868
 H       -6.942064634    12.060849110     2.678631198
 H       -6.137416511    10.775971798     1.790772048
 H       -3.384586593    12.995353064     3.267874262
 H       -4.023586646    11.344352907     3.239100495
 H       -4.944378459    12.636754559     3.997666500
 H       -0.646341061     0.858687095    -2.878777844
 H       -0.763370477    -0.689811997    -3.703787492
 H        0.785635116    -0.170939309    -3.052276872
 H       -0.468745653    -2.976700033    -0.764207389
 H        0.902517339    -2.466225688    -1.766331907
 H       -0.641689169    -2.856875643    -2.508805898
 H        0.897516090    -0.125307809     2.955489240
 H       -0.522354197    -0.823167399     3.719661839
 H       -0.634168432     0.768395166     2.979525325
 H       -2.530137175    -1.678079416     0.713206584
 H       -2.698824203    -0.160302220     1.619278029
 H       -2.441026458    -1.678245045     2.467339018

