187   

Si        0.000000000     0.000000000     0.000000000
 C        1.865061888     0.000000000     0.000000000
 C       -0.682504427     1.709604664     0.000000000
 C        0.091545514     2.795922215     0.420476757
 C       -0.436233349     4.087118114     0.416190749
 C       -1.748853951     4.320917866    -0.001693883
 C       -2.525057055     3.230554076    -0.416981302
 C       -2.001223559     1.940898246    -0.413973637
 C       -2.345281787     5.652192173    -0.024025805
 C       -1.718136145     6.781862106     0.345411996
 C       -2.322838842     8.109771602     0.319783917
 C       -1.558579930     9.208890515     0.732034737
 C       -2.095607091    10.494275825     0.723784452
 C       -3.407053854    10.712450334     0.286597155
 C       -4.171893107     9.615697136    -0.128502003
 C       -3.636099623     8.329442370    -0.106503046
Si       -4.153575890    12.393966438     0.260093491
 C       -5.284112405    12.600770989    -1.161815272
 C       -5.135613573    11.965003804    -2.332144579
 C       -6.033010322    12.122006502    -3.476780255
 C       -5.766718651    11.397716735    -4.648303561
 C       -6.582808174    11.508303359    -5.761013013
 C       -7.684232345    12.393704319    -5.754796034
 C       -7.952660005    13.120943554    -4.578633116
 C       -7.147808007    12.964027084    -3.457629252
 N       -8.498055685    12.491341030    -6.890313916
 C       -7.858752839    12.363330587    -8.209474472
 C       -9.626435610    13.429349192    -6.843880096
 C       -6.641990845    13.276650950    -8.449764955
 C       -6.992929348    14.743692645    -8.754302236
 N       -7.644780345    15.007165990   -10.053492754
 C       -9.050314782    14.812426486   -10.064822177
 C       -9.822150290    15.649307405    -9.233609711
 C      -11.199847047    15.513252261    -9.196067430
 C      -11.853697314    14.570384362   -10.004539136
 C      -11.086222924    13.764309039   -10.847918583
 C       -9.701274888    13.886327111   -10.892496536
 C       -6.909343168    14.458375378   -11.203090914
 C      -13.312358331    14.469223892    -9.924439945
 C      -14.047755349    13.610976691   -10.643503200
Si      -15.870006786    13.489132919   -10.539174332
 C      -16.487052014    13.937585905    -8.865539187
 C      -15.704103738    13.655129255    -7.738079498
 C      -16.156072719    13.987847407    -6.464102736
 C      -17.404829742    14.597139975    -6.282681839
 C      -18.187032934    14.869064397    -7.408404016
 C      -17.735549859    14.541426450    -8.686510919
 C      -17.834961518    14.926998150    -4.927928353
 C      -19.002901448    15.514911463    -4.617884425
 C      -19.433628344    15.845030137    -3.263400610
 C      -18.653020169    15.573952495    -2.136774655
 C      -19.104277437    15.906839622    -0.859655433
 C      -20.351700659    16.513032395    -0.681410766
 C      -21.137027733    16.784989204    -1.809977022
 C      -20.681639609    16.456843258    -3.083811237
Si      -20.961822745    16.958631829     0.997489255
 C      -19.936896382    16.157954228     2.334580982
 C      -20.887269297    18.847785912     1.218071021
 C      -22.777433565    16.404498130     1.139146927
 C      -16.640508528    14.624611355   -11.855628568
 C      -16.370298127    11.691958031   -10.910820386
 C       -5.148216630    12.646500651     1.861975832
 C       -2.795078775    13.722721343     0.169587981
 C       -0.648325358    -0.915347101    -1.538759656
 C       -0.623681548    -0.915451895     1.547839152
 H        1.124868921     2.675358143     0.757075661
 H        0.187908715     4.916208045     0.744477955
 H       -3.550333424     3.390572089    -0.745579944
 H       -2.655051578     1.130233660    -0.747615515
 H       -3.381523920     5.681548806    -0.374697391
 H       -0.682859282     6.755467448     0.696818624
 H       -0.534022230     9.060009716     1.066854543
 H       -1.454431537    11.311442998     1.064716810
 H       -5.203624790     9.727359063    -0.480214443
 H       -4.252597882     7.492780488    -0.430311368
 H       -6.106469559    13.312421323    -0.997599452
 H       -4.316181388    11.256124737    -2.521402717
 H       -4.908977406    10.724229744    -4.681485878
 H       -6.374072025    10.905501828    -6.639665696
 H       -8.790291966    13.808565921    -4.531151270
 H       -7.386452316    13.526623094    -2.553923149
 H      -10.213653579    13.362324054    -7.779054110
 H       -9.324095337    14.480403730    -6.708262273
 H      -10.305873168    13.140631451    -6.020812500
 H       -5.864140590    14.811664446   -11.158275125
 H       -7.347699526    14.858131239   -12.135152856
 H       -6.903630181    13.358885311   -11.260957037
 H       -9.327781536    16.409064837    -8.631050204
 H      -11.784905439    16.161640442    -8.542184059
 H      -11.572515537    13.026976537   -11.487755338
 H       -9.133375239    13.246865481   -11.561430348
 H      -13.755160942    15.171414561    -9.203278529
 H      -13.582361486    12.925805803   -11.368243326
 H      -14.723433510    13.173541317    -7.818442220
 H      -15.531594505    13.766846782    -5.600379802
 H      -19.161460182    15.340689752    -7.295257051
 H      -18.392268559    14.778363110    -9.527986723
 H      -17.122492728    14.656564197    -4.143016943
 H      -19.715721512    15.784524410    -5.402750725
 H      -17.680335309    15.098236079    -2.247743886
 H      -18.448585982    15.670939557    -0.016859183
 H      -22.120961865    17.256204768    -1.731596305
 H      -21.305178979    16.677210281    -3.948162497
 H       -7.547207692    11.296735940    -8.323691515
 H       -8.627254870    12.532839131    -8.998093194
 H       -5.980206939    13.254439320    -7.557603122
 H       -6.032015559    12.854782627    -9.270132656
 H       -7.632010166    15.151286571    -7.939439386
 H       -6.056413201    15.351925248    -8.743054823
 H        2.262762504    -1.029767916    -0.040508178
 H        2.276361006     0.479925119     0.905140497
 H        2.259449665     0.543508657    -0.877959679
 H      -20.335516375    16.395350020     3.337183010
 H      -18.887067608    16.498501776     2.305195984
 H      -19.938160651    15.057746280     2.229452402
 H      -21.214806114    19.043575478     2.280017469
 C      -19.462385508    19.405881593     1.047570511
 C      -21.833471345    19.617036323     0.278966387
 H      -23.336178427    16.968116036     0.336334208
 C      -22.956923084    14.899646458     0.869105605
 C      -23.421513082    16.751586492     2.493115488
 H      -17.756008615    14.467528411   -11.789749989
 C      -16.348755169    16.111866115   -11.587433046
 C      -16.197420146    14.279445897   -13.288586048
 H      -15.980241772    11.465875330   -11.944919738
 C      -15.728707694    10.695160626    -9.928921921
 C      -17.893788199    11.478298353   -10.916782115
 H       -5.576504366    13.688418179     1.801853843
 C       -6.319521834    11.655195920     1.983724217
 C       -4.283315814    12.556873477     3.131316235
 H       -2.150959082    13.575465788     1.084014835
 C       -1.904763018    13.564206387    -1.076129123
 C       -3.348304021    15.158716528     0.206491521
 H       -1.772875921    -0.928524513    -1.441554055
 C       -0.296859074    -0.187846920    -2.849142861
 C       -0.168651270    -2.374896925    -1.631877353
 H       -0.149844013    -1.938643292     1.511577755
 C       -0.184933746    -0.232092381     2.855892907
 C       -2.151901203    -1.097904908     1.574538358
 H      -18.734664552    18.964708206     1.740756132
 H      -19.455612806    20.487807066     1.243198058
 H      -19.072109892    19.275383248     0.027939491
 H      -22.888501008    19.341557765     0.402036670
 H      -21.573710878    19.495766143    -0.782077906
 H      -21.772638780    20.695479923     0.486481711
 H      -22.568912042    14.585281581    -0.110409452
 H      -24.025318201    14.640616663     0.873232820
 H      -22.482714593    14.266840256     1.630991984
 H      -23.394194956    17.823932545     2.725887085
 H      -22.964410189    16.214705376     3.334921059
 H      -24.483509096    16.465727824     2.487409379
 H      -16.691760713    16.454051422   -10.601106088
 H      -16.866906746    16.737822904   -12.327599548
 H      -15.280329230    16.359313462   -11.668805202
 H      -16.439925084    13.251011322   -13.584841609
 H      -15.121210511    14.431271436   -13.451544835
 H      -16.711000696    14.933919980   -14.007863030
 H      -14.631654899    10.746873740    -9.907334740
 H      -15.982980821     9.665227702   -10.217216457
 H      -16.087350641    10.821500309    -8.897008556
 H      -18.416787718    12.087853377   -11.664623415
 H      -18.358204984    11.675464158    -9.939782772
 H      -18.125654489    10.430812325   -11.158771357
 H       -7.016356557    11.696763138     1.135375674
 H       -6.912571473    11.880324352     2.881320341
 H       -5.986937297    10.612415355     2.089376131
 H       -3.476459875    13.300031016     3.162683705
 H       -3.830170098    11.564907280     3.271216587
 H       -4.902431881    12.738311029     4.021810120
 H       -1.423281090    12.579112067    -1.147335520
 H       -1.092351123    14.303963980    -1.056781738
 H       -2.452236309    13.731164930    -2.015250396
 H       -3.934577070    15.377304505     1.108010479
 H       -3.972179973    15.398188518    -0.666026164
 H       -2.519061424    15.880738444     0.197940264
 H       -0.655430421     0.851077149    -2.878665235
 H       -0.765755122    -0.698937338    -3.701964974
 H        0.781740572    -0.170702585    -3.054405733
 H       -0.447381184    -2.980747175    -0.760054584
 H        0.917734814    -2.461279038    -1.765908306
 H       -0.625180308    -2.864563290    -2.504388966
 H        0.903926721    -0.135836589     2.954130052
 H       -0.519952723    -0.823314745     3.720254585
 H       -0.621085602     0.769483804     2.981305603
 H       -2.537538231    -1.667316651     0.719471951
 H       -2.695487731    -0.143274630     1.616730253
 H       -2.447668116    -1.658003863     2.473597261

