187   

Si        0.000000000     0.000000000     0.000000000
 C        1.866024655     0.000000000     0.000000000
 C       -0.659321795     1.718078172     0.000000000
 C        0.079310003     2.752822281    -0.583832597
 C       -0.411496410     4.057016772    -0.588811447
 C       -1.655696723     4.356662647    -0.028545634
 C       -2.398659011     3.317580003     0.546659599
 C       -1.908479295     2.013995343     0.560161263
 C       -2.200988207     5.709273307    -0.015715059
 C       -1.583382999     6.787654964    -0.527651200
 C       -2.131096452     8.139136865    -0.513403777
 C       -3.376906374     8.428185926     0.049679929
 C       -3.871620760     9.729961929     0.047101027
 C       -3.109649940    10.779155971    -0.480027968
 C       -1.856523321    10.495799798    -1.034874374
 C       -1.379193600     9.186968587    -1.059668966
Si       -3.787960783    12.484538566    -0.469739025
 C       -2.512765886    13.783596498    -0.297645913
 C       -2.429204918    14.849472201    -1.104527063
 C       -1.424779706    15.907860441    -0.998312346
 C       -1.469851602    16.962288155    -1.922318616
 C       -0.548264422    17.994884245    -1.876165007
 C        0.389671618    18.062810312    -0.824829844
 C        0.423001182    17.016760589     0.114327357
 C       -0.452001937    15.942092369     0.003366891
 N        1.316128134    19.129912110    -0.808113892
 C        0.770050650    20.471521282    -1.105910384
 C        2.263879619    19.154050862     0.320100668
 C       -0.271373370    20.982271080    -0.090057838
 C       -1.693415562    21.009496662    -0.687641881
 N       -2.773968975    21.067172876     0.322739909
 C       -2.769201332    19.945626606     1.200878777
 C       -2.936225261    18.672776840     0.622073478
 C       -2.941016887    17.542173454     1.419615982
 C       -2.866274935    17.645204667     2.816956164
 C       -2.736729826    18.911185505     3.388781704
 C       -2.682068482    20.053744796     2.594974927
 C       -2.866039212    22.387699059     0.969544722
 C       -2.875790676    16.411138628     3.602697799
 C       -2.810056348    16.364595055     4.939888610
Si       -2.822988634    14.812901666     5.908728908
 C       -2.062603903    13.436608595     4.946252126
 C       -1.151249752    13.748577407     3.928902581
 C       -0.552448001    12.742266824     3.176337030
 C       -0.830341975    11.395878707     3.432488788
 C       -1.729203138    11.083344989     4.459818262
 C       -2.334899455    12.090011051     5.211944383
 C       -0.215398057    10.321765912     2.657547721
 C        0.655756753    10.535858156     1.656912394
 C        1.298709460     9.504859899     0.851828042
 C        1.074575843     8.138956507     1.035885899
 C        1.719879383     7.196928800     0.233050157
 C        2.587113572     7.603180589    -0.786075109
 C        2.802393822     8.974170072    -0.980174848
 C        2.164710534     9.910982591    -0.173523970
Si        3.451820037     6.382606236    -1.860381473
 C        3.392150975     4.675540841    -1.108738527
 C        2.596854897     6.412901769    -3.560266356
 C        5.289464962     6.830937189    -2.083563624
 C       -1.782559722    15.082781859     7.478385629
 C       -4.607435126    14.394279812     6.410841896
 C       -4.810483514    12.731226227    -2.054479102
 C       -4.940698549    12.680637060     1.037287642
 C       -0.628139772    -0.890413550    -1.560415540
 C       -0.652185460    -0.928457921     1.527657525
 H        1.054688320     2.576710318    -1.047329960
 H        0.178105166     4.848822317    -1.049380763
 H       -3.370762332     3.527292627     0.987824725
 H       -2.532855651     1.245170048     1.022729658
 H       -3.184231845     5.800574832     0.453322319
 H       -0.596724237     6.699660416    -0.995692836
 H       -3.977361347     7.633396004     0.487254885
 H       -4.862990039     9.888880030     0.480882236
 H       -1.219040209    11.279116307    -1.455321619
 H       -0.399403322     8.982428583    -1.492329746
 H       -1.810944054    13.628745359     0.537038332
 H       -3.126545295    15.015523335    -1.937935911
 H       -2.220767106    16.956048585    -2.713139980
 H       -0.554271481    18.755947181    -2.651402421
 H        1.126806545    17.033166451     0.940731616
 H       -0.390014058    15.130093836     0.730120670
 H        2.980750435    19.980863058     0.180585949
 H        2.852465971    18.218890944     0.319802541
 H        1.782604143    19.273677995     1.304306188
 H       -3.006101972    23.155826638     0.189611087
 H       -1.987867708    22.661166978     1.573676593
 H       -3.764129582    22.413718069     1.612153809
 H       -3.042808714    18.577565560    -0.457564878
 H       -3.031906365    16.557981510     0.950195809
 H       -2.670822364    19.016984460     4.471548778
 H       -2.562429853    21.021392104     3.071211837
 H       -2.955878769    15.507393653     2.978140448
 H       -2.755748271    17.283140972     5.542532591
 H       -0.870053030    14.781766530     3.693461402
 H        0.142935894    13.016281958     2.384231418
 H       -1.959138531    10.042091962     4.677027215
 H       -3.026346111    11.785174017     6.001031429
 H       -0.516469137     9.309879652     2.937090187
 H        0.937980249    11.558628263     1.382202929
 H        0.392088512     7.797416783     1.813009707
 H        1.520911954     6.140987735     0.441640898
 H        3.465118912     9.352016976    -1.763739227
 H        2.344325492    10.971468526    -0.341010800
 H        1.628745990    21.178982250    -1.158518716
 H        0.347309782    20.453360800    -2.135188384
 H       -0.263577986    20.337418844     0.812373599
 H        0.005564575    21.988002905     0.269195985
 H       -1.810495039    21.876023195    -1.372773369
 H       -1.865511647    20.097345148    -1.306048165
 H        2.263156767    -1.028349934     0.069173647
 H        2.259574462     0.567382578     0.863226588
 H        2.278440932     0.454883691    -0.917235722
 H        3.935806804     3.945301882    -1.733331903
 H        2.354541469     4.312228309    -1.000566517
 H        3.854417495     4.666592752    -0.104913753
 H        2.780543974     7.449544332    -3.969024534
 C        3.189067574     5.396793029    -4.553254076
 C        1.073874288     6.203891892    -3.485653283
 H        5.771384042     5.897517725    -2.497773245
 C        5.566927360     7.973324648    -3.076473397
 C        5.973037183     7.163582041    -0.744394971
 H       -2.265005193    15.939813102     8.030703888
 C       -1.768522439    13.858857249     8.410371809
 C       -0.331679139    15.481047728     7.152551924
 H       -4.564955845    13.373776357     6.890307086
 C       -5.197442945    15.376935725     7.438958364
 C       -5.555992549    14.317325407     5.202083876
 H       -5.171975455    13.799712992    -2.035319153
 C       -3.972080328    12.527616941    -3.329922513
 C       -6.045701862    11.815438170    -2.126178725
 H       -5.831390196    12.019257456     0.837219301
 C       -4.272133809    12.206196952     2.336783548
 C       -5.449018020    14.119626924     1.231412547
 H       -0.163842730    -1.918137280    -1.538113373
 C       -2.158062247    -1.056852137    -1.588179259
 C       -0.182740820    -0.192629790    -2.858758863
 H       -1.777692354    -0.917143630     1.440967856
 C       -0.202041101    -2.399197595     1.589781430
 C       -0.272628332    -0.233265370     2.847852786
 H        4.267730594     5.518491243    -4.713748747
 H        2.718754381     5.517856668    -5.539901186
 H        3.011467124     4.354710119    -4.254656586
 H        0.567916998     6.932997249    -2.837107636
 H        0.793797557     5.196070065    -3.150781325
 H        0.627878596     6.327911762    -4.483381691
 H        5.154350150     7.791536083    -4.077010548
 H        6.651843043     8.096131405    -3.210799901
 H        5.192141113     8.945556712    -2.730403423
 H        5.904226620     6.353304985    -0.006462465
 H        5.571306833     8.072453124    -0.273512299
 H        7.045614902     7.345528467    -0.901824419
 H       -2.766933701    13.564428207     8.758252021
 H       -1.181423549    14.080251550     9.313456980
 H       -1.300074757    12.976619219     7.950772721
 H       -0.255998936    16.383494446     6.530690270
 H        0.226468761    14.681282114     6.644591137
 H        0.217515017    15.697581523     8.079641732
 H       -4.626674943    15.424612916     8.374925533
 H       -6.214014168    15.063053769     7.717034974
 H       -5.289542739    16.399985002     7.048974579
 H       -5.230235486    13.596396926     4.437613273
 H       -5.689467185    15.287656922     4.701888658
 H       -6.555451903    13.994841811     5.524465356
 H       -3.084289692    13.172047429    -3.382093333
 H       -4.574646058    12.759102856    -4.219191172
 H       -3.631112469    11.489038835    -3.452065165
 H       -6.759423644    11.982667683    -1.309582231
 H       -5.787642427    10.746757203    -2.133372133
 H       -6.598698182    12.001869888    -3.058059474
 H       -3.878681441    11.180864410     2.290925582
 H       -4.998494387    12.211986257     3.162029921
 H       -3.435574541    12.851052159     2.649354844
 H       -5.999547687    14.508699993     0.365856140
 H       -4.642401346    14.831923722     1.460119922
 H       -6.143265175    14.161791144     2.082931479
 H       -2.548158849    -1.638422599    -0.743250120
 H       -2.461277237    -1.596150859    -2.497332543
 H       -2.692254931    -0.096185485    -1.609838238
 H        0.907154010    -0.110263095    -2.957668894
 H       -0.607206186     0.815954117    -2.968308859
 H       -0.527062884    -0.766551721    -3.731045780
 H       -0.500830095    -2.982847480     0.709474805
 H       -0.661175267    -2.895516471     2.457187039
 H        0.883436567    -2.510454619     1.712234394
 H       -0.604608828     0.813389195     2.899800087
 H        0.807943320    -0.246251294     3.043537327
 H       -0.746427765    -0.748714190     3.695400124

