187   

Si        0.000000000     0.000000000     0.000000000
 C        1.865212851     0.000000000     0.000000000
 C       -0.676488588     1.712104684     0.000000000
 C        0.119452303     2.800828410     0.370289807
 C       -0.401849197     4.094499475     0.367226048
 C       -1.729703139     4.328981219     0.000733303
 C       -2.527366492     3.236462858    -0.365124573
 C       -2.009689382     1.944162885    -0.364105350
 C       -2.317813468     5.664213068    -0.017281994
 C       -1.664895318     6.792627646     0.308676510
 C       -2.253226656     8.127789785     0.290587470
 C       -3.581451997     8.360876181    -0.076178989
 C       -4.103454013     9.654022302    -0.079512108
 C       -3.310473073    10.741638282     0.300152010
 C       -1.978975942    10.510758721     0.670856706
 C       -1.457250649     9.220086937     0.660453432
Si       -3.973720465    12.457506888     0.304854472
 C       -3.227947317    13.477050893     1.626177936
 C       -2.790909980    12.992353501     2.796520507
 C       -2.194025014    13.809749383     3.853540335
 C       -1.773595055    13.185948952     5.037055240
 C       -1.202593424    13.914202333     6.067888909
 C       -1.077050597    15.316912523     5.968822906
 C       -1.499694962    15.943675483     4.780942472
 C       -2.025691945    15.192089939     3.738207078
 N       -0.495318757    16.045529216     7.022519864
 C       -0.722842721    15.542011989     8.389632541
 C       -0.572027415    17.514393573     6.936140265
 C       -2.210876193    15.505775989     8.781487449
 C       -2.430343735    15.427908144    10.301086167
 N       -1.885043600    16.554851710    11.093216650
 C       -1.946760834    17.820917289    10.467731335
 C       -3.198432543    18.259102658     9.985255437
 C       -3.313376029    19.491101551     9.364733739
 C       -2.203719598    20.340574910     9.231275892
 C       -0.972953319    19.913772660     9.733641777
 C       -0.839371472    18.676160281    10.354133063
 C       -0.631430774    16.225397539    11.790584517
 C       -2.381281869    21.633214940     8.566106388
 C       -1.396459844    22.521962756     8.382863112
Si       -1.559248886    24.146793375     7.561711503
 C       -0.823101176    25.457700268     8.619853274
 C       -0.682789422    25.256239543     9.998377855
 C       -0.125357594    26.248108911    10.801683082
 C        0.293534413    27.466135612    10.250685294
 C        0.145480259    27.665803844     8.874923286
 C       -0.407630374    26.673714699     8.066753074
 C        0.871540489    28.474207900    11.133488307
 C        1.315446953    29.677888033    10.733142716
 C        1.893497993    30.686254551    11.615472553
 C        2.042457502    30.488962466    12.990615849
 C        2.600644944    31.480802946    13.797119729
 C        3.028783723    32.691081519    13.242760487
 C        2.881278285    32.891038261    11.863385879
 C        2.318663245    31.901601704    11.062090164
Si        3.767445280    34.009776207    14.293923130
 C        4.212636097    33.367648803    15.987731499
 C        5.318249940    34.676376289    13.414075769
 C        2.521047191    35.435411106    14.487781361
 C       -0.633361018    24.066494027     5.900915766
 C       -3.381379582    24.572205050     7.223808190
 C       -3.577322811    13.265837565    -1.371340586
 C       -5.861808367    12.433860082     0.538828466
 C       -0.652116540    -0.908422667    -1.540948272
 C       -0.621678463    -0.918364579     1.546796364
 H        1.165361203     2.680342416     0.665905139
 H        0.239822599     4.925044126     0.656014192
 H       -3.564407677     3.396826927    -0.653736468
 H       -2.679998721     1.131895716    -0.658747528
 H       -3.367019159     5.697630529    -0.324913045
 H       -0.615446324     6.759324941     0.615971621
 H       -4.221350781     7.530168653    -0.367215859
 H       -5.146727705     9.774053188    -0.383661453
 H       -1.312534883    11.325210894     0.975560986
 H       -0.419462388     9.060497653     0.947281533
 H       -3.174080250    14.552263059     1.398269336
 H       -2.841834561    11.924379999     3.052708508
 H       -1.885113946    12.106303962     5.145940151
 H       -0.853089010    13.394968995     6.955235349
 H       -1.413727811    17.018817769     4.659301685
 H       -2.328070739    15.700742406     2.821715672
 H       -0.121493000    17.973264272     7.834415149
 H       -1.601687483    17.899174079     6.848838924
 H        0.018485257    17.856769710     6.067549522
 H       -0.790878235    15.319339694    12.401892505
 H       -0.379185984    17.039419165    12.494252971
 H        0.229302800    16.051274330    11.126490172
 H       -4.073291979    17.624888845    10.108967945
 H       -4.285439035    19.809592971     8.986444245
 H       -0.096072758    20.557800749     9.647379631
 H        0.133866568    18.378960727    10.731954841
 H       -3.411797068    21.808969021     8.231088983
 H       -0.369546498    22.311775533     8.726753670
 H       -0.997854409    24.326709519    10.483716575
 H       -0.018208094    26.072633622    11.870544727
 H        0.462789984    28.603230897     8.422038805
 H       -0.496979577    26.886378475     6.997913506
 H        0.925972371    28.182840589    12.186576589
 H        1.260942196    29.969230385     9.680121838
 H        1.721019827    29.554174915    13.446243655
 H        2.690194971    31.268859306    14.866170376
 H        3.198586968    33.816643811    11.374727991
 H        2.210844008    32.075919941     9.993230433
 H       -0.268334674    14.530205121     8.476683014
 H       -0.148893342    16.191918606     9.088968602
 H       -2.723800892    16.398868610     8.369533150
 H       -2.707201316    14.644305628     8.292700483
 H       -3.528043657    15.400456046    10.508838393
 H       -2.019886126    14.472172586    10.693319027
 H        2.263178625    -1.029254959    -0.050448940
 H        2.275967021     0.470898354     0.910155833
 H        2.259978509     0.551777611    -0.872608007
 H        4.698151388    34.151799425    16.595858842
 H        4.917255834    32.519132358    15.917134699
 H        3.322219135    33.021548242    16.541241051
 H        4.959508593    35.092090960    12.427708742
 C        6.016304828    35.815027718    14.178914086
 C        6.345766490    33.570421890    13.112739216
 H        3.007965721    36.172678709    15.189624048
 C        2.209500024    36.166679413    13.169784429
 C        1.195117104    34.976372131    15.121801268
 H       -0.787961583    25.070037776     5.408921112
 C        0.880272381    23.852895470     6.079400107
 C       -1.185195022    22.983134573     4.957586920
 H       -3.805052982    23.694310642     6.655310998
 C       -4.194334066    24.744219687     8.519864082
 C       -3.561969924    25.831159678     6.356925968
 H       -4.010703164    14.306319925    -1.326465051
 C       -2.062402532    13.388823703    -1.614636782
 C       -4.217209737    12.531835353    -2.562495139
 H       -6.277829307    11.844468945    -0.328468198
 C       -6.280149737    11.729805276     1.842124051
 C       -6.494294223    13.836756977     0.504881960
 H       -1.776755320    -0.915633760    -1.443722088
 C       -0.297346033    -0.179004609    -2.849332135
 C       -0.179667802    -2.370012815    -1.637729083
 H       -0.141244421    -1.938594619     1.511163679
 C       -0.188750128    -0.232254743     2.855445454
 C       -2.148639187    -1.110728217     1.572404944
 H        5.361343868    36.674291183    14.372768778
 H        6.861258409    36.199867934    13.589407907
 H        6.436077844    35.490636655    15.140341750
 H        5.931553255    32.743711218    12.517966283
 H        6.787707537    33.136145880    14.019305759
 H        7.180970101    33.980892995    12.527469489
 H        3.096868549    36.598215668    12.689753627
 H        1.525362189    37.006698781    13.359698454
 H        1.706071310    35.523780814    12.434085799
 H        1.320212534    34.513469323    16.109098343
 H        0.642664515    34.266593355    14.489309559
 H        0.529432100    35.838894915    15.269408402
 H        1.355860693    24.613231937     6.715181725
 H        1.385996395    23.909328704     5.104857539
 H        1.127355405    22.867729692     6.498099602
 H       -2.246677666    23.118543858     4.713216899
 H       -1.061954649    21.965536581     5.355417509
 H       -0.644871889    23.007231044     4.000376833
 H       -4.154882740    23.870134625     9.184061106
 H       -5.255430398    24.903647357     8.281715265
 H       -3.876774339    25.617374640     9.108464515
 H       -3.094954188    25.750168360     5.367221635
 H       -3.176713088    26.741407074     6.838105234
 H       -4.631718460    26.011908384     6.176102285
 H       -1.538545145    13.952101804    -0.830136278
 H       -1.873634902    13.923112335    -2.556464626
 H       -1.565011986    12.412819696    -1.710710527
 H       -5.312415216    12.487217097    -2.509658030
 H       -3.845668711    11.503867919    -2.681788700
 H       -3.976478321    13.054071278    -3.499815819
 H       -5.914477714    10.696335359     1.917701816
 H       -7.375742830    11.674516931     1.907168464
 H       -5.943931815    12.264620044     2.742448578
 H       -6.307394395    14.376606580    -0.432070502
 H       -6.159372279    14.476219644     1.333721928
 H       -7.586855896    13.758402538     0.600430318
 H       -0.652816952     0.861080427    -2.876545736
 H       -0.767358827    -0.686466692    -3.703721554
 H        0.781438104    -0.164694031    -3.053902759
 H       -0.460959136    -2.976598821    -0.767261097
 H        0.906273120    -2.461241190    -1.772348192
 H       -0.638745485    -2.855403393    -2.511295008
 H        0.899345394    -0.128134267     2.954561797
 H       -0.520176413    -0.826031543     3.719410100
 H       -0.631867236     0.766252723     2.980696199
 H       -2.530964640    -1.676959906     0.713753883
 H       -2.697937146    -0.159789859     1.621175837
 H       -2.440614063    -1.678583204     2.467835386

