187   

Si        0.000000000     0.000000000     0.000000000
 C        1.865030527     0.000000000     0.000000000
 C       -0.672377238     1.713511623     0.000000000
 C        0.085861499     2.778238165    -0.498140051
 C       -0.426112963     4.075644964    -0.496922011
 C       -1.707155198     4.336955677    -0.004417224
 C       -2.467751295     3.267893121     0.488270320
 C       -1.960016781     1.972006448     0.488122586
 C       -2.286286450     5.674962274     0.018208671
 C       -1.678183483     6.790845085    -0.418893046
 C       -2.281815655     8.119510749    -0.384496475
 C       -3.568978631     8.339113939     0.117405046
 C       -4.114985040     9.619135965     0.135695775
 C       -3.389589496    10.712023335    -0.360750128
 C       -2.103796365    10.495498348    -0.864580291
 C       -1.555909377     9.213026638    -0.871399527
Si       -4.169922739    12.371820360    -0.305949942
 C       -3.382002766    13.709365143    -1.268258712
 C       -2.677769747    13.611017269    -2.402616292
 C       -2.094330542    14.774632320    -3.078475290
 C       -1.369522900    14.587107334    -4.264268026
 C       -0.803393035    15.663017311    -4.931349250
 C       -0.967625005    16.969063599    -4.433144451
 C       -1.675119402    17.161187758    -3.239560110
 C       -2.205147818    16.069095260    -2.562050314
 N       -0.361267520    18.031940257    -5.164475838
 C       -0.947299691    18.232137185    -6.507710906
 C       -0.210502536    19.298638157    -4.425386561
 C       -2.453529557    18.559647611    -6.518064279
 C       -3.287192184    17.321509796    -6.901220003
 N       -4.741326259    17.512043018    -6.755282176
 C       -5.239100361    17.556717487    -5.433801486
 C       -4.825310557    16.559537246    -4.526588298
 C       -5.288044336    16.565261197    -3.223326244
 C       -6.228492097    17.512968473    -2.789416393
 C       -6.663932565    18.477571822    -3.698515444
 C       -6.182225461    18.505355359    -5.004190095
 C       -5.283601837    18.501647608    -7.699903473
 C       -6.672953587    17.458884614    -1.396643218
 C       -7.561812324    18.290961926    -0.835953523
Si       -8.058301449    18.144709782     0.922950577
 C       -7.938599287    16.376504560     1.421202829
 C       -8.451771885    15.401756607     0.557379287
 C       -8.382482526    14.051687455     0.894351738
 C       -7.811203099    13.645407808     2.103131940
 C       -7.311039820    14.623299383     2.972288146
 C       -7.380887198    15.974212368     2.639937906
 C       -7.721591876    12.241802374     2.488823433
 C       -8.165423364    11.217691589     1.740332410
 C       -8.079534648     9.812381266     2.118743345
 C       -7.514098037     9.389366802     3.323973679
 C       -7.453140296     8.033267756     3.644792772
 C       -7.922668158     7.069402860     2.747497128
 C       -8.475994031     7.490883570     1.530484784
 C       -8.555622334     8.845684176     1.222743455
Si       -7.851414816     5.274989085     3.151369371
 C       -6.756126641     4.954336069     4.626596126
 C       -9.597450228     4.618221359     3.517207325
 C       -7.164018818     4.368308206     1.622799212
 C       -6.889015319    19.211990021     1.977068171
 C       -9.839619797    18.762314631     1.141678757
 C       -5.943631842    12.216264834    -1.007096150
 C       -4.283592177    12.965775225     1.503681784
 C       -0.631497342    -0.906885193    -1.549657740
 C       -0.650525044    -0.919487155     1.535274765
 H        1.094600246     2.635745033    -0.895296819
 H        0.184921524     4.887799884    -0.886236706
 H       -3.469136572     3.448829857     0.876758730
 H       -2.600573759     1.178841981     0.883179398
 H       -3.298260183     5.724167771     0.434295613
 H       -0.668331417     6.752972133    -0.834843618
 H       -4.156212308     7.508239550     0.506257853
 H       -5.124666112     9.725944094     0.549021443
 H       -1.490780005    11.312817129    -1.255345726
 H       -0.551679652     9.064383969    -1.262757332
 H       -3.565211330    14.701600250    -0.813563797
 H       -2.480183812    12.659002983    -2.906993633
 H       -1.245755608    13.582525689    -4.668456342
 H       -0.221093934    15.503360052    -5.835803724
 H       -1.822670079    18.158295274    -2.834305963
 H       -2.729341518    16.242717131    -1.620395458
 H        0.449087707    19.967320223    -5.005310800
 H        0.294768665    19.101711000    -3.463516794
 H       -1.155205301    19.828664247    -4.228008501
 H       -4.898856471    18.288720844    -8.711957341
 H       -5.038157902    19.544864564    -7.446355822
 H       -6.382572182    18.394403396    -7.745239280
 H       -4.124991464    15.787493235    -4.843961539
 H       -4.930335516    15.798176818    -2.531000075
 H       -7.391577282    19.227328909    -3.388529396
 H       -6.535713661    19.280015567    -5.675923088
 H       -6.199206929    16.638238705    -0.833797172
 H       -8.025747178    19.110204659    -1.399462930
 H       -8.908563257    15.659642940    -0.404714555
 H       -8.786995304    13.311628704     0.205057114
 H       -6.864874184    14.327927446     3.919801414
 H       -6.981876810    16.693231607     3.359945359
 H       -7.261351353    12.063332040     3.465203300
 H       -8.639299075    11.400241013     0.770465195
 H       -7.124979048    10.118665380     4.032157924
 H       -7.013339246     7.762780309     4.608657335
 H       -8.855356711     6.781072996     0.789974156
 H       -8.990107940     9.154376515     0.273736067
 H       -0.376453786    19.047654196    -7.005494654
 H       -0.740218869    17.315210925    -7.104546088
 H       -2.776485256    18.926940173    -5.524166570
 H       -2.658096592    19.386995492    -7.219035763
 H       -3.088025046    17.032371372    -7.957638677
 H       -2.974313456    16.448448520    -6.280357614
 H        2.263371872    -1.028801513     0.055378924
 H        2.258827507     0.556668547     0.870091085
 H        2.276351242     0.467322720    -0.911655366
 H       -6.687215393     3.873733774     4.845236176
 H       -7.138043710     5.451903452     5.535084532
 H       -5.729132418     5.322505910     4.445861800
 H       -9.464305075     3.529262411     3.781895231
 C      -10.252388828     5.325074368     4.718258733
 C      -10.555950548     4.700636651     2.315751450
 H       -7.962071531     4.452839994     0.829447555
 C       -5.884063694     5.026428384     1.075795069
 C       -6.894195037     2.872869373     1.863983005
 H       -7.190159319    19.041604009     3.050719793
 C       -5.415459543    18.793879998     1.816791073
 C       -7.012655603    20.717852883     1.684205958
 H       -9.835349643    19.842454356     0.814256577
 C      -10.843468840    18.001716203     0.256660251
 C      -10.320448249    18.707525202     2.602481785
 H       -6.589133073    11.927390065    -0.128832847
 C       -6.470333287    13.539169429    -1.588385809
 C       -6.089640482    11.130550931    -2.087491277
 H       -5.201084244    13.624457754     1.553734401
 C       -4.466806326    11.815204221     2.508269117
 C       -3.072380477    13.805401210     1.948401658
 H       -0.168952918    -1.935147581    -1.515688807
 C       -2.161912605    -1.071293506    -1.574937597
 C       -0.186102170    -0.225977684    -2.856740224
 H       -1.775176396    -0.927574312     1.438805915
 C       -0.177037236    -2.381592281     1.620898631
 C       -0.295010473    -0.200259435     2.849168023
 H       -9.669415938     5.242684851     5.644688274
 H      -11.232553146     4.874674321     4.931790198
 H      -10.438723194     6.393137187     4.535780344
 H      -10.201829133     4.149517845     1.435541348
 H      -10.764496091     5.734422188     2.006254592
 H      -11.528190083     4.259620726     2.580969169
 H       -6.027157154     6.082360577     0.802296795
 H       -5.561652909     4.513166834     0.157515644
 H       -5.044004950     4.975328180     1.782315279
 H       -7.779034737     2.319898730     2.203205991
 H       -6.090652867     2.694749603     2.591438811
 H       -6.574662891     2.393164584     0.926884140
 H       -5.229577543    17.737968505     2.057506481
 H       -4.781355045    19.381272448     2.495276897
 H       -5.031019044    18.973750313     0.801601544
 H       -8.021197699    21.114302409     1.858196775
 H       -6.721852462    20.978990157     0.657113455
 H       -6.342611714    21.285576899     2.346048649
 H      -10.593214355    18.031783547    -0.812650947
 H      -11.843293355    18.448866866     0.351558642
 H      -10.952030590    16.946283947     0.544728597
 H       -9.703196435    19.302615012     3.287759005
 H      -10.367689818    17.683489867     2.999667731
 H      -11.340337138    19.111881759     2.678511156
 H       -6.430554644    14.377102655    -0.878688912
 H       -7.525281494    13.433028815    -1.878163481
 H       -5.937176097    13.842607616    -2.501862336
 H       -5.816967910    10.124831537    -1.741575043
 H       -5.493759878    11.339535208    -2.986532770
 H       -7.135883612    11.067655285    -2.417851407
 H       -5.340694475    11.182922250     2.297128960
 H       -4.612859978    12.217984300     3.520048698
 H       -3.590462721    11.153400333     2.563080148
 H       -2.921597651    14.711084869     1.347327429
 H       -2.131672503    13.238001203     1.937327035
 H       -3.212861480    14.145863756     2.984204683
 H       -2.552167467    -1.644204423    -0.724298643
 H       -2.466055522    -1.619317012    -2.478519419
 H       -2.694502422    -0.110015632    -1.606433771
 H        0.903818430    -0.143281367    -2.955903146
 H       -0.609955688     0.781219402    -2.979220559
 H       -0.529389580    -0.810813847    -3.722123708
 H       -0.457548163    -2.981387992     0.745492795
 H       -0.636144222    -2.874266998     2.490299620
 H        0.908975716    -2.472991742     1.755051872
 H       -0.647610205     0.840546090     2.884007866
 H        0.783928932    -0.189768249     3.053699685
 H       -0.765937785    -0.713235916     3.699655863

