187   

Si        0.000000000     0.000000000     0.000000000
 C        1.864754462     0.000000000     0.000000000
 C       -0.686612799     1.708649708     0.000000000
 C        0.156705448     2.815177485     0.140915879
 C       -0.365250749     4.107927148     0.140645544
 C       -1.733753176     4.329563455    -0.038842961
 C       -2.577054208     3.220329808    -0.180974948
 C       -2.063336817     1.926570019    -0.144232570
 C       -2.311663585     5.670312160    -0.044254600
 C       -1.591298827     6.792503019     0.120143323
 C       -2.120672714     8.150525249     0.122516080
 C       -1.217922141     9.207362115     0.308813838
 C       -1.659622325    10.526388030     0.321286137
 C       -3.017443997    10.819790667     0.138254395
 C       -3.918844524     9.768603374    -0.058071251
 C       -3.472205905     8.446385279    -0.071467353
Si       -3.576803344    12.571548095     0.158838113
 C       -5.378464560    12.650463801     0.438193719
 C       -6.226674577    13.361351398    -0.315069060
 C       -7.670752483    13.429127122    -0.097097841
 C       -8.433314998    14.219137445    -0.972475169
 C       -9.803333973    14.324779777    -0.819975467
 C      -10.460778422    13.590544200     0.188542711
 C       -9.704668182    12.794456433     1.059440523
 C       -8.320186324    12.735144496     0.923080822
 N      -11.869579810    13.743991989     0.291957161
 C      -12.607178629    13.431322062    -0.947132405
 C      -12.497600363    13.176835171     1.496012265
 C      -12.755910164    11.936105933    -1.295906525
 C      -11.433927455    11.216968474    -1.615426863
 N      -10.621300333    11.834041113    -2.691139881
 C       -9.402898881    11.164101648    -2.973376802
 C       -8.872156328    10.171436030    -2.126732265
 C       -7.675657511     9.542198410    -2.443544043
 C       -6.919331135     9.929020474    -3.557161101
 C       -7.421641411    10.950647084    -4.369157575
 C       -8.632685184    11.565847238    -4.084281321
 C      -11.390856744    12.186150250    -3.901619031
 C       -5.665176003     9.226971299    -3.839774666
 C       -4.853711650     9.501322727    -4.870816099
Si       -3.286321474     8.612581830    -5.210802229
 C       -3.430052318     6.878674331    -4.604329444
 C       -4.665768709     6.236962275    -4.763331761
 C       -4.845585738     4.927127690    -4.328288651
 C       -3.794733679     4.221864150    -3.734076858
 C       -2.558665358     4.861644023    -3.581175273
 C       -2.376639172     6.175235237    -4.011805374
 C       -3.952399524     2.848402255    -3.268213386
 C       -5.092200657     2.142226059    -3.365540047
 C       -5.264064184     0.769513303    -2.904475258
 C       -4.227518799     0.050228439    -2.304436910
 C       -4.423609712    -1.259670821    -1.874680300
 C       -5.669757256    -1.879581008    -2.023515993
 C       -6.710808890    -1.161732599    -2.622692264
 C       -6.507803843     0.145274898    -3.061865964
Si       -5.871631613    -3.612406350    -1.437435800
 C       -5.094520581    -3.815608477     0.247371455
 C       -7.713859553    -4.080418445    -1.369251426
 C       -5.002003314    -4.772183307    -2.672207240
 C       -3.058164853     8.568911868    -7.103269802
 C       -1.757949805     9.466795933    -4.481377606
 C       -2.681173799    13.513576113     1.546291367
 C       -3.137352537    13.372757793    -1.512403258
 C       -0.659288000    -0.883695377    -1.551455023
 C       -0.613260661    -0.949325444     1.531671378
 H        1.237826895     2.710390977     0.262484588
 H        0.312476127     4.949662733     0.271096900
 H       -3.648591619     3.368569918    -0.313888334
 H       -2.775799659     1.099036184    -0.225385318
 H       -3.392783356     5.711441143    -0.201243688
 H       -0.508173552     6.732766341     0.270971215
 H       -0.160473773     8.996381682     0.452861490
 H       -0.911342810    11.308191686     0.477295508
 H       -4.988285516     9.946221686    -0.216059324
 H       -4.187204328     7.642505434    -0.237362686
 H       -5.731812662    12.060178765     1.297869027
 H       -5.899712544    13.964578871    -1.174204570
 H       -7.941867914    14.760732699    -1.780692357
 H      -10.377903210    14.962113633    -1.487873301
 H      -10.182645451    12.219165990     1.844797478
 H       -7.745826310    12.119233217     1.615601615
 H      -13.558190244    13.479426250     1.523827465
 H      -12.013933065    13.609049490     2.390703063
 H      -12.446236776    12.079109779     1.563011169
 H      -12.370901718    12.610657756    -3.639192856
 H      -11.554108278    11.330303851    -4.575932934
 H      -10.849207855    12.975749635    -4.453592827
 H       -9.395030354     9.865817095    -1.226406705
 H       -7.308507174     8.747946883    -1.791425080
 H       -6.853402262    11.280286799    -5.239426003
 H       -8.979493722    12.369457580    -4.726911362
 H       -5.442910402     8.435220366    -3.108621787
 H       -5.088069685    10.305950304    -5.582518833
 H       -5.526336662     6.735986271    -5.222606602
 H       -5.817091050     4.454845487    -4.458357522
 H       -1.730277118     4.333291679    -3.110282382
 H       -1.391456090     6.624994619    -3.862382560
 H       -3.055801786     2.411323602    -2.815295992
 H       -5.983986034     2.585010882    -3.817508574
 H       -3.245617614     0.511340493    -2.191855789
 H       -3.572737141    -1.776682666    -1.417940952
 H       -7.703359984    -1.594550550    -2.770365284
 H       -7.328801607     0.684117727    -3.529926309
 H      -13.619120230    13.887415946    -0.848086423
 H      -12.107977538    13.958211652    -1.794079976
 H      -13.236929241    11.404126288    -0.450770581
 H      -13.463473767    11.834507967    -2.140638432
 H      -10.799897460    11.235437293    -0.692036628
 H      -11.659158735    10.149892043    -1.845371900
 H        2.262735956    -1.030006612    -0.026339108
 H        2.274012934     0.490243803     0.900571059
 H        2.263535065     0.530393689    -0.883368457
 H       -5.218800054    -4.847377515     0.620670351
 H       -5.567402377    -3.136869402     0.980859294
 H       -4.013331500    -3.592560029     0.233552007
 H       -8.124874963    -3.870761477    -2.399625710
 C       -7.957349639    -5.569561854    -1.062710386
 C       -8.506475352    -3.231306076    -0.358425978
 H       -5.123492063    -5.811961361    -2.251836961
 C       -5.638314426    -4.744871796    -4.073450158
 C       -3.494919802    -4.487001634    -2.809113545
 H       -2.962937417     9.644899208    -7.427536520
 C       -1.786848132     7.821455158    -7.541616449
 C       -4.269060167     7.957636031    -7.830776939
 H       -0.876456338     8.852280089    -4.832816777
 C       -1.555322544    10.905925806    -4.988189572
 C       -1.750333059     9.465142999    -2.947709887
 H       -1.584200618    13.490096903     1.283694604
 C       -3.112494217    14.987134373     1.650793055
 C       -2.854406238    12.841331218     2.920240081
 H       -3.464321432    14.449651319    -1.431439978
 C       -1.628915385    13.354676706    -1.818543476
 C       -3.885443234    12.731389313    -2.694293120
 H       -1.781326786    -0.916132770    -1.424674418
 C       -0.355436098    -0.115856942    -2.850032102
 C       -0.164392337    -2.333242709    -1.695430525
 H       -0.095994207    -1.951393418     1.491937045
 C       -0.210857037    -0.256692883     2.846767855
 C       -2.131475505    -1.199824380     1.553299049
 H       -7.497480244    -6.244875301    -1.795890568
 H       -9.035751657    -5.784816859    -1.082523750
 H       -7.603886409    -5.866526313    -0.066544346
 H       -8.404979530    -2.148955118    -0.518294008
 H       -8.225360486    -3.436997859     0.683319399
 H       -9.579949990    -3.454769850    -0.438376346
 H       -6.698455999    -5.028656973    -4.076970573
 H       -5.127379117    -5.460563681    -4.733587664
 H       -5.554307519    -3.763322137    -4.561758658
 H       -2.950373380    -4.549659103    -1.858297749
 H       -3.287078816    -3.502655748    -3.253362701
 H       -3.032855427    -5.228160718    -3.477073133
 H       -0.863493501     8.260247179    -7.142424454
 H       -1.691389185     7.850038592    -8.636435429
 H       -1.798802615     6.757855282    -7.263145205
 H       -5.216367530     8.465612485    -7.605287836
 H       -4.403567061     6.889140347    -7.608815310
 H       -4.131345945     8.029626349    -8.918688583
 H       -1.441385579    10.972738221    -6.077104532
 H       -0.636721586    11.328877110    -4.556359631
 H       -2.369392648    11.582780992    -4.693203091
 H       -1.791116610     8.458275385    -2.505832862
 H       -2.582320062    10.036130457    -2.506167720
 H       -0.829013161     9.926665130    -2.565984392
 H       -2.933182444    15.559269601     0.731542969
 H       -2.541598304    15.491739872     2.443054200
 H       -4.173717726    15.104491657     1.913874309
 H       -2.522359240    11.793684326     2.937168361
 H       -3.891971429    12.866548863     3.280725199
 H       -2.252768158    13.365884797     3.675828209
 H       -1.019100856    13.849668487    -1.053123786
 H       -1.431075024    13.887173144    -2.759823038
 H       -1.236647274    12.336240851    -1.956843888
 H       -4.979537015    12.732537169    -2.588171948
 H       -3.591132655    11.684097214    -2.868495302
 H       -3.666470440    13.276437480    -3.622113988
 H       -0.722702556     0.920366529    -2.841262963
 H       -0.845139254    -0.608439031    -3.703026944
 H        0.715474510    -0.081921305    -3.087940182
 H       -0.399970546    -2.963295340    -0.828334015
 H        0.916898746    -2.400943661    -1.871635938
 H       -0.646500992    -2.809106638    -2.562530037
 H        0.871398494    -0.106568489     2.950042085
 H       -0.517706500    -0.870387911     3.705777574
 H       -0.695337999     0.721547870     2.979394915
 H       -2.496995767    -1.751619779     0.677779771
 H       -2.716074563    -0.272459887     1.637129961
 H       -2.398611718    -1.806524372     2.430718082

