187   

Si        0.000000000     0.000000000     0.000000000
 C        1.864996067     0.000000000     0.000000000
 C       -0.685625592     1.708275417     0.000000000
 C        0.095924089     2.801863133     0.385957613
 C       -0.436424281     4.091287966     0.381267578
 C       -1.760693110     4.315521692    -0.003433124
 C       -2.544080646     3.217965441    -0.385150845
 C       -2.015702392     1.930310007    -0.381788250
 C       -2.362986931     5.644075104    -0.025030657
 C       -1.731921371     6.781195141     0.313839829
 C       -2.346131351     8.104830586     0.287913414
 C       -1.580134209     9.215073654     0.665477744
 C       -2.127359954    10.496400301     0.655138245
 C       -3.452337411    10.698094341     0.253090419
 C       -4.219562146     9.589852898    -0.126480720
 C       -3.672655216     8.308566594    -0.104060504
Si       -4.219227236    12.370058070     0.222522312
 C       -5.382983770    12.527763150    -1.180866650
 C       -5.239676259    11.866681433    -2.337365320
 C       -6.156802742    11.976774609    -3.472737280
 C       -5.887804681    11.226046601    -4.628095735
 C       -6.720708263    11.291107276    -5.731550181
 C       -7.890683521    12.079611556    -5.694734091
 C       -8.163694478    12.828914970    -4.539043151
 C       -7.291920425    12.788892931    -3.455490885
 N       -8.710447029    12.114790625    -6.846462956
 C       -9.084839143    10.801432491    -7.406928925
 C       -9.834014844    13.065318082    -6.824914784
 C      -10.051592584     9.964782977    -6.550907724
 C       -9.374751934     9.418257322    -5.279687782
 N      -10.201599294     8.444457011    -4.550450739
 C      -10.500553770     7.231824315    -5.190436792
 C       -9.590285239     6.679291437    -6.118491463
 C       -9.876104182     5.483303266    -6.755186202
 C      -11.043901197     4.764488684    -6.461309344
 C      -11.928955600     5.296592759    -5.520048314
 C      -11.668137971     6.504761996    -4.886666034
 C      -11.270013804     9.075483714    -3.759981191
 C      -11.295344848     3.506268772    -7.164585160
 C      -12.373565717     2.735195516    -6.967856496
Si      -12.685522941     1.163673459    -7.847675373
 C      -11.952473327     1.164334462    -9.535007198
 C      -11.909896245     2.354342356   -10.271077524
 C      -11.358818004     2.376495614   -11.551160303
 C      -10.850500167     1.210022593   -12.129838722
 C      -10.901999451     0.018473729   -11.394944750
 C      -11.447962191    -0.006117998   -10.113810252
 C      -10.264727149     1.185254861   -13.466004025
 C      -10.154127511     2.253808023   -14.273383913
 C       -9.568208480     2.228302871   -15.609504060
 C       -9.056198918     1.063050921   -16.185915068
 C       -8.504598338     1.083702887   -17.466876826
 C       -8.447919919     2.274314065   -18.198055024
 C       -8.960681417     3.444630596   -17.621998943
 C       -9.515563571     3.419723543   -16.345589342
Si       -7.723123965     2.318180988   -19.889662058
 C       -6.780335798     0.754857799   -20.272976919
 C       -9.115218603     2.521548178   -21.171702046
 C       -6.568777310     3.827513154   -20.004731476
 C      -11.968627474    -0.267500421    -6.818743207
 C      -14.566488900     0.922819036    -7.999401873
 C       -5.184329370    12.636122369     1.839536445
 C       -2.882843780    13.715105337     0.077696421
 C       -0.649568916    -0.912538279    -1.539832250
 C       -0.620221738    -0.918650935     1.547497307
 H        1.138446834     2.688403306     0.695497946
 H        0.193212108     4.926227877     0.682973525
 H       -3.578549893     3.370888063    -0.687964511
 H       -2.675258766     1.113670464    -0.688899866
 H       -3.408652349     5.664580210    -0.348220143
 H       -0.687688197     6.765141431     0.637626729
 H       -0.545504385     9.078469546     0.973700817
 H       -1.483621551    11.323156356     0.966718658
 H       -5.262141892     9.687533043    -0.449556607
 H       -4.291343203     7.463075497    -0.400495145
 H       -6.215687367    13.227356251    -1.018550050
 H       -4.409598357    11.168421295    -2.521682125
 H       -5.001287479    10.590577983    -4.663644738
 H       -6.468323118    10.738658197    -6.633562755
 H       -9.052545814    13.447803774    -4.474662922
 H       -7.516335470    13.392134754    -2.575004414
 H      -10.300746165    13.095834483    -7.824847632
 H       -9.448322088    14.080474871    -6.620944190
 H      -10.613362876    12.825262693    -6.084773321
 H      -10.900286687    10.011972176    -3.307869215
 H      -11.547017975     8.407130891    -2.923867731
 H      -12.171820732     9.306790813    -4.349071915
 H       -8.660107676     7.192834278    -6.345099702
 H       -9.170361027     5.087746366    -7.487284507
 H      -12.844820080     4.758239042    -5.271711200
 H      -12.383799852     6.881516851    -4.163816650
 H      -10.507777263     3.251260185    -7.888371908
 H      -13.143059157     3.007405116    -6.230013598
 H      -12.296641664     3.297879646    -9.870779709
 H      -11.330735938     3.315571542   -12.100616172
 H      -10.512346100    -0.900903484   -11.827490834
 H      -11.461114529    -0.965313516    -9.589314657
 H       -9.904069047     0.204270801   -13.789094909
 H      -10.515221287     3.234778580   -13.950838393
 H       -9.084714242     0.123821503   -15.636540071
 H       -8.121285897     0.140076776   -17.864939858
 H       -8.943334330     4.404295429   -18.146286055
 H       -9.910838936     4.338253532   -15.916031819
 H       -9.540742100    10.985935046    -8.408029921
 H       -8.153964789    10.222910253    -7.605843650
 H      -10.942729958    10.557559015    -6.279768090
 H      -10.432228098     9.118706997    -7.159003071
 H       -8.397159778     8.943632840    -5.526355119
 H       -9.123318373    10.250927497    -4.580955403
 H        2.262749527    -1.029705105    -0.041478091
 H        2.275698801     0.478874921     0.906016979
 H        2.260103805     0.544284804    -0.877133435
 H       -6.313313976     0.806565582   -21.272743976
 H       -7.436737565    -0.132776584   -20.258399008
 H       -5.972020250     0.589223331   -19.537657176
 H       -8.609647141     2.476940615   -22.179550723
 C      -10.148716879     1.382137578   -21.105429530
 C       -9.857456049     3.866079875   -21.070546123
 H       -7.218493672     4.729488797   -19.807997642
 C       -5.460366218     3.804109223   -18.936696034
 C       -5.925622684     4.004055735   -21.391757839
 H      -12.225615648    -1.213901913    -7.376254227
 C      -10.436748937    -0.185214158    -6.692948541
 C      -12.580050231    -0.366647176    -5.409713740
 H      -14.966709778     0.918967822    -6.944675755
 C      -15.242439371     2.076040404    -8.762731284
 C      -14.953471059    -0.410384759    -8.662704340
 H       -5.624763861    13.672610414     1.773339290
 C       -6.342136933    11.634444306     1.999713740
 C       -4.292674994    12.574061175     3.091863938
 H       -2.211810104    13.586062523     0.975681094
 C       -2.024604249    13.552275686    -1.189740305
 C       -3.452979528    15.144299692     0.112930241
 H       -1.773831699    -0.929991681    -1.438934075
 C       -0.305376394    -0.179298196    -2.848851681
 C       -0.164910106    -2.369988634    -1.639275253
 H       -0.136514833    -1.937340068     1.513492092
 C       -0.190006097    -0.229393089     2.855397838
 C       -2.146556758    -1.115342848     1.572233562
 H       -9.710890917     0.386184507   -21.250626573
 H      -10.898248521     1.506567317   -21.900099992
 H      -10.705748916     1.365577359   -20.157518059
 H       -9.200580241     4.737025390   -21.189220581
 H      -10.404164206     3.981260759   -20.124015596
 H      -10.610476395     3.939743635   -21.868769825
 H       -5.848625812     3.736801820   -17.910251282
 H       -4.872866475     4.732193431   -18.982214025
 H       -4.747781610     2.980240309   -19.075192680
 H       -6.659557424     4.101843070   -22.202081809
 H       -5.243694374     3.184693975   -21.655141494
 H       -5.322376161     4.923454389   -21.411323180
 H       -9.918530417    -0.167404849    -7.661703416
 H      -10.053822842    -1.063424767    -6.154653723
 H      -10.102343168     0.695239770    -6.124611966
 H      -13.668312200    -0.507258355    -5.415349003
 H      -12.357697111     0.510187732    -4.785220497
 H      -12.161942324    -1.234359793    -4.879314760
 H      -15.058240166     3.062410746    -8.315491768
 H      -16.332831256     1.937790381    -8.766733743
 H      -14.935946587     2.127188435    -9.817500085
 H      -14.585558630    -1.290303524    -8.119737602
 H      -14.604384010    -0.488583191    -9.702367377
 H      -16.048057345    -0.508620836    -8.699911185
 H       -7.056969205    11.655937728     1.166028588
 H       -6.918626571    11.866198114     2.906451918
 H       -5.995995976    10.596764801     2.113590689
 H       -3.492990371    13.325702757     3.095587762
 H       -3.826401404    11.588842906     3.236972270
 H       -4.894979364    12.762455589     3.992416859
 H       -1.534961738    12.571365495    -1.264089827
 H       -1.219192820    14.300058708    -1.199372838
 H       -2.597932860    13.704653296    -2.115818101
 H       -4.016443988    15.367009828     1.027894911
 H       -4.103461996    15.365999933    -0.744651852
 H       -2.633364860    15.876420264     0.072678039
 H       -0.671040150     0.857313120    -2.874700484
 H       -0.772851280    -0.690923546    -3.702202447
 H        0.772574938    -0.154405311    -3.056492937
 H       -0.437333414    -2.979382648    -0.767958026
 H        0.921175629    -2.451782486    -1.778510729
 H       -0.623476676    -2.858905975    -2.511152852
 H        0.897682365    -0.121831215     2.954928741
 H       -0.520061284    -0.822971009     3.720018376
 H       -0.636386343     0.767867868     2.979075743
 H       -2.526310886    -1.685846185     0.715229653
 H       -2.698843619    -0.165842809     1.616808165
 H       -2.438008566    -1.680735484     2.469371156

