187   

Si        0.000000000     0.000000000     0.000000000
 C        1.865205852     0.000000000     0.000000000
 C       -0.690390709     1.706065619     0.000000000
 C        0.124575376     2.821149420    -0.217683175
 C       -0.416587058     4.107025125    -0.214105691
 C       -1.782892062     4.306126933    -0.001344347
 C       -2.598998558     3.187167224     0.213876925
 C       -2.061283891     1.903510898     0.215960727
 C       -2.395545384     5.630059286     0.011517983
 C       -1.734858093     6.785348431    -0.175035181
 C       -2.358349376     8.104713482    -0.160074241
 C       -1.557068243     9.234551087    -0.368188867
 C       -2.111151255    10.513084560    -0.361982667
 C       -3.480358533    10.690545418    -0.137364968
 C       -4.283641536     9.562292193     0.070900753
 C       -3.728118756     8.284945449     0.054578170
Si       -4.257557575    12.357033638    -0.119754885
 C       -5.613334530    12.426281456     1.106872626
 C       -5.630228376    11.694355540     2.229190728
 C       -6.701386504    11.731065432     3.225505703
 C       -6.592545732    10.910593036     4.358132959
 C       -7.576229377    10.904718803     5.332888891
 C       -8.742222319    11.680731334     5.169144433
 C       -8.853918639    12.502770932     4.036263969
 C       -7.829238307    12.545357161     3.097561319
 N       -9.721458078    11.644443024     6.190779159
 C      -10.156826006    10.297244992     6.615100586
 C      -10.851271404    12.577856715     6.039508773
 C      -10.919418792     9.495010567     5.543018252
 C      -10.019164896     8.458747402     4.839020232
 N      -10.462643367     8.083548796     3.476591997
 C      -10.291151030     9.169787377     2.557027124
 C       -8.988879816     9.368795200     2.068924844
 C       -8.738493816    10.397943828     1.175580631
 C       -9.776683741    11.226349196     0.722402407
 C      -11.070846720    11.007172987     1.198068442
 C      -11.333865946     9.986030546     2.106533150
 C      -11.801574769     7.468331234     3.458853296
 C       -9.453775356    12.299077328    -0.222051878
 C      -10.358642721    13.149452678    -0.721750982
Si      -10.024733617    14.505644235    -1.899830588
 C      -10.784643126    16.048857376    -1.249049199
 C      -10.927672258    16.218705684     0.132930096
 C      -11.501021582    17.380960523     0.645815235
 C      -11.929289420    18.402408590    -0.207097727
 C      -11.777509023    18.231985254    -1.589450943
 C      -11.211501262    17.068994350    -2.106343161
 C      -12.534580305    19.635488459     0.285374894
 C      -12.737178306    19.923413051     1.582286908
 C      -13.342397779    21.156306945     2.075068748
 C      -13.777379509    22.175289853     1.223880411
 C      -14.350801746    23.338167201     1.738325425
 C      -14.494712289    23.510061516     3.118594894
 C      -14.058048304    22.489700291     3.974580990
 C      -13.491943565    21.327691733     3.457983152
Si      -15.249356882    25.038774091     3.813109814
 C      -15.392361349    26.380245729     2.524798728
 C      -16.988022140    24.643026479     4.478583663
 C      -14.167035793    25.632347260     5.262431534
 C       -8.152690905    14.815612251    -2.047951696
 C      -10.721032733    14.044192804    -3.603079158
 C       -2.990020156    13.715510554     0.270485651
 C       -5.003293581    12.680862743    -1.841021026
 C       -0.600499638    -0.929640920    -1.549334386
 C       -0.657752330    -0.902416589     1.541769072
 H        1.199940653     2.727607825    -0.392169850
 H        0.239714757     4.958998676    -0.381692764
 H       -3.666083953     3.320551043     0.382242133
 H       -2.746603278     1.069638434     0.393187643
 H       -3.475441758     5.630506360     0.189585583
 H       -0.656078730     6.788707687    -0.353920412
 H       -0.488734022     9.116012427    -0.538427585
 H       -1.437409198    11.356604558    -0.533863049
 H       -5.362242183     9.640561934     0.249396140
 H       -4.374207372     7.423282771     0.214908498
 H       -6.417845027    13.139954064     0.873472771
 H       -4.828291257    10.987039545     2.487763873
 H       -5.713345052    10.277342038     4.483830017
 H       -7.447755384    10.302109453     6.228157263
 H       -9.740419952    13.107497247     3.870609630
 H       -7.934102129    13.204715225     2.233392778
 H      -11.466897898    12.551773774     6.954917582
 H      -11.501785334    12.363531678     5.176628008
 H      -10.460955657    13.607297798     5.944270398
 H      -11.760486029     6.532647251     4.043197908
 H      -12.059408595     7.196172215     2.420333795
 H      -12.606613204     8.097031394     3.866220015
 H       -8.184273895     8.716695094     2.406658257
 H       -7.718637907    10.558283435     0.817785241
 H      -11.893013205    11.638547288     0.860330988
 H      -12.347587121     9.834553807     2.464108172
 H       -8.386137534    12.344208112    -0.478063442
 H      -11.424250372    13.071125429    -0.446760558
 H      -10.606575884    15.453716866     0.848659192
 H      -11.609635883    17.488418145     1.723519248
 H      -12.105283492    19.015353456    -2.270169816
 H      -11.120690783    16.989678223    -3.192877089
 H      -12.827593653    20.344417435    -0.494560556
 H      -12.443598842    19.214568640     2.362114899
 H      -13.672508639    22.068485147     0.145759146
 H      -14.673894747    24.099022548     1.022408326
 H      -14.144164932    22.569018302     5.062002934
 H      -13.160512475    20.545680716     4.138497228
 H       -9.263606659     9.734137460     6.966301945
 H      -10.797592605    10.426569736     7.517615399
 H      -11.787401547     8.988109717     5.999412157
 H      -11.343869224    10.188334154     4.789698991
 H       -8.977775199     8.850749403     4.753350916
 H       -9.957196499     7.526549550     5.440586380
 H        2.262251662    -1.030124093     0.039787494
 H        2.262754894     0.542473075     0.876955954
 H        2.274046920     0.479302171    -0.906813419
 H      -15.807522673    27.306960156     2.959800755
 H      -16.051973963    26.079627100     1.692074669
 H      -14.402930460    26.628071401     2.099256003
 H      -17.410620473    25.628234649     4.831128314
 C      -17.923267045    24.085113382     3.390121153
 C      -16.986711800    23.671578516     5.672458611
 H      -14.168800462    24.790497459     6.014530642
 C      -12.707613614    25.884553055     4.842447001
 C      -14.712741511    26.890176592     5.961294504
 H       -7.683598008    13.805067826    -2.233998365
 C       -7.772630431    15.737076958    -3.219231240
 C       -7.563145921    15.395796405    -0.748982531
 H      -10.481990593    14.911266921    -4.284924489
 C      -10.068409455    12.781016004    -4.193148960
 C      -12.249034785    13.860631358    -3.587582660
 H       -2.189424225    13.634924951    -0.520529419
 C       -3.583194608    15.134543108     0.201398604
 C       -2.325791996    13.517227864     1.644660051
 H       -5.552770763    13.664446086    -1.760922093
 C       -3.941515914    12.820153580    -2.944986763
 C       -6.014145446    11.597138991    -2.256710579
 H       -0.084517225    -1.932842988    -1.519092330
 C       -2.119193703    -1.177378121    -1.576630770
 C       -0.193365247    -0.222286065    -2.854979099
 H       -1.782490248    -0.899924208     1.444481496
 C       -0.196411247    -2.367283892     1.640199019
 C       -0.297685803    -0.173713843     2.849206404
 H      -18.046903329    24.759454962     2.532974513
 H      -18.929751465    23.926363827     3.803203587
 H      -17.593257413    23.110751600     3.001915690
 H      -16.410947553    24.038013344     6.531791312
 H      -16.606302457    22.674166069     5.410840756
 H      -18.014322097    23.520802637     6.034356135
 H      -12.230348269    25.006540222     4.383988620
 H      -12.100389514    26.138951730     5.722931720
 H      -12.601019749    26.722594843     4.141020321
 H      -15.729500965    26.762651910     6.354733664
 H      -14.714215599    27.774905203     5.310878937
 H      -14.079476056    27.144674757     6.823779432
 H       -8.072622765    15.343855644    -4.198771108
 H       -6.680353741    15.860332657    -3.261364719
 H       -8.189999207    16.748993816    -3.122981154
 H       -7.735422155    14.761082529     0.131332794
 H       -7.953699780    16.396641755    -0.513041522
 H       -6.473886770    15.512741742    -0.843580043
 H       -8.980389765    12.866992407    -4.311452471
 H      -10.471868123    12.582736381    -5.196398384
 H      -10.269051058    11.878065680    -3.598423138
 H      -12.791200162    14.738520722    -3.209416567
 H      -12.569439333    12.992197765    -2.995361526
 H      -12.618293354    13.689112030    -4.608828575
 H       -3.995381451    15.386283917    -0.784170384
 H       -2.799311491    15.879006333     0.403507922
 H       -4.368008933    15.307295770     0.951429934
 H       -1.827460619    12.544109925     1.753634660
 H       -3.034114720    13.620015377     2.479891010
 H       -1.549804947    14.279257672     1.803477241
 H       -3.236374320    13.642914116    -2.771402335
 H       -4.426112938    13.030905497    -3.909443620
 H       -3.353625479    11.903332923    -3.093595095
 H       -6.831045057    11.455477202    -1.535286100
 H       -5.543943836    10.615929466    -2.417234577
 H       -6.487121528    11.867861377    -3.211627998
 H       -2.484662602    -1.744725170    -0.711458018
 H       -2.386470664    -1.768254014    -2.464986854
 H       -2.701778726    -0.247775015    -1.642544533
 H        0.890576007    -0.082789334    -2.956485961
 H       -0.667775759     0.762670023    -2.972923292
 H       -0.508278731    -0.820763377    -3.721817151
 H       -0.482228920    -2.972574821     0.770277134
 H       -0.659087426    -2.848372489     2.514265121
 H        0.888848462    -2.466515655     1.774693589
 H       -0.647527353     0.868276676     2.875408921
 H        0.781110987    -0.165718800     3.053537875
 H       -0.770836104    -0.677552843     3.704081373

