187   

Si        0.000000000     0.000000000     0.000000000
 C        1.865201981     0.000000000     0.000000000
 C       -0.671774664     1.714165534     0.000000000
 C        0.122411816     2.794655634     0.397883507
 C       -0.391430575     4.090848853     0.395965558
 C       -1.710147424     4.336412134     0.003721086
 C       -2.506041709     3.252660185    -0.389367765
 C       -1.995549562     1.957223107    -0.389871495
 C       -2.286862618     5.676771612    -0.012817500
 C       -1.622510023     6.789919179     0.340281421
 C       -2.178216422     8.137783632     0.331427072
 C       -3.493240874     8.410097551    -0.056269736
 C       -3.981686421     9.715911479    -0.048829547
 C       -3.157964755    10.782132435     0.330510173
 C       -1.839227307    10.511076382     0.714561521
 C       -1.357836539     9.204925119     0.718502156
Si       -3.809378342    12.504147619     0.338097197
 C       -2.787709651    13.622516901     1.361255759
 C       -2.089860926    13.245410448     2.440363922
 C       -1.277094579    14.155588672     3.247489245
 C       -0.591045928    13.637745725     4.357376149
 C        0.191456417    14.455298527     5.154020767
 C        0.334471006    15.822682388     4.839361853
 C       -0.355460744    16.345446547     3.735619616
 C       -1.168142163    15.518432306     2.966818006
 N        1.147622405    16.611480102     5.690176575
 C        2.523213994    16.091745992     5.872738748
 C        1.103337020    18.066593915     5.469461305
 C        3.176169044    15.452387633     4.633724451
 C        3.259254165    16.421854808     3.441945761
 N        3.981474309    15.875999743     2.283893958
 C        3.389685052    14.844230353     1.534867487
 C        2.000202487    14.610248154     1.571095779
 C        1.433705472    13.587303346     0.825154158
 C        2.212920118    12.791678143    -0.025639405
 C        3.586694052    13.045907118    -0.085254913
 C        4.172204986    14.052262607     0.669958516
 C        5.435227897    15.785989844     2.504142473
 C        1.581697018    11.719208738    -0.799419960
 C        2.255175249    10.915733549    -1.633444819
Si        1.595897964     9.549445143    -2.651355193
 C        2.170101145     9.730793130    -4.391170124
 C        2.674945664    10.952482484    -4.851866454
 C        3.107900857    11.083824808    -6.169135151
 C        3.037905461    10.003501964    -7.057980887
 C        2.526960802     8.786818797    -6.596110904
 C        2.095619118     8.650684537    -5.277685711
 C        3.503899619    10.190769098    -8.428017345
 C        3.495018061     9.239305294    -9.376952466
 C        3.961350182     9.427999844   -10.746653945
 C        4.472043171    10.643804641   -11.208583508
 C        4.907015884    10.780319896   -12.526798121
 C        4.846339618     9.699125106   -13.411398152
 C        4.335127022     8.478235261   -12.950576321
 C        3.896469571     8.346839375   -11.635997169
Si        5.416391035     9.863279421   -15.153821092
 C        6.399128141    11.428250520   -15.409584212
 C        6.478137896     8.342019900   -15.580813946
 C        3.907813193     9.892635644   -16.314386872
 C        2.272219897     7.909838380    -1.957992312
 C       -0.304668563     9.518594764    -2.643279120
 C       -3.754328815    13.178681968    -1.441038818
 C       -5.604121837    12.514500885     0.956824450
 C       -0.651735349    -0.907816561    -1.541264766
 C       -0.625562499    -0.915443332     1.546574223
 H        1.161020926     2.664983830     0.714911156
 H        0.250333806     4.914826431     0.703995024
 H       -3.535894550     3.421514090    -0.698120662
 H       -2.663653485     1.151472757    -0.706479192
 H       -3.327507625     5.726783783    -0.343895995
 H       -0.582555799     6.727251749     0.678922739
 H       -4.150464119     7.599321480    -0.363704951
 H       -5.020956084     9.864714168    -0.353950660
 H       -1.141566731    11.304176055     1.006959085
 H       -0.330192965     9.017461013     1.029806710
 H       -2.792333979    14.671447304     1.024589878
 H       -2.082572884    12.212421745     2.816375250
 H       -0.677094517    12.577700989     4.599789491
 H        0.695167654    14.048783775     6.027612430
 H       -0.269535771    17.394247268     3.469235257
 H       -1.707377664    15.947569857     2.121105263
 H        1.619505119    18.569945619     6.305712765
 H        0.052244111    18.406827372     5.497034374
 H        1.559828593    18.400601919     4.525244682
 H        5.772185744    16.580585812     3.189190276
 H        5.955050428    15.951445067     1.542096028
 H        5.752457436    14.814648140     2.917818122
 H        1.355012869    15.214754968     2.205482522
 H        0.356976846    13.413687988     0.900977176
 H        4.222249753    12.446634621    -0.739679016
 H        5.241010897    14.215741224     0.584029362
 H        0.497863592    11.643780680    -0.642033328
 H        3.346922583    11.028228496    -1.757639148
 H        2.746500150    11.831727423    -4.203331610
 H        3.501610289    12.039502785    -6.509635051
 H        2.460947124     7.932745947    -7.267168672
 H        1.703917415     7.675956618    -4.972996279
 H        3.877971007    11.194579089    -8.650345586
 H        3.120915383     8.235636935    -9.155330285
 H        4.533811326    11.499778945   -10.538983233
 H        5.295516309    11.756457904   -12.829968624
 H        4.264141434     7.598778460   -13.596672157
 H        3.500891632     7.391293397   -11.297054142
 H        3.170766424    16.905939150     6.263492373
 H        2.465342078    15.328243511     6.686224863
 H        4.186835696    15.092667003     4.902313535
 H        2.616149775    14.543993981     4.327950817
 H        2.235909767    16.716961131     3.109529048
 H        3.763183730    17.367276096     3.746177226
 H        2.263342085    -1.028974910    -0.056062092
 H        2.276449770     0.465925205     0.912461322
 H        2.259692632     0.556446800    -0.869821166
 H        6.775619273    11.496984236   -16.445766508
 H        7.274506803    11.460642624   -14.735698892
 H        5.791043536    12.329266828   -15.216278212
 H        5.802429216     7.447173549   -15.450174185
 C        6.989802919     8.337866320   -17.032327304
 C        7.674048433     8.171225776   -14.626572662
 H        4.323670827    10.057038654   -17.350294362
 C        3.110714053     8.576015385   -16.324713381
 C        2.942870410    11.050015344   -15.997746742
 H        1.745072120     7.092124349    -2.530510632
 C        3.785886436     7.749719212    -2.187197140
 C        1.971203741     7.715450548    -0.462244200
 H       -0.619592071     9.795329045    -1.593160126
 C       -0.899758539    10.559747014    -3.608570072
 C       -0.915798122     8.144215778    -2.964985308
 H       -4.308650073    14.160712388    -1.420330642
 C       -2.314222350    13.452138621    -1.909388571
 C       -4.451532888    12.259221914    -2.457799337
 H       -6.199039697    11.923258545     0.201889324
 C       -5.753478609    11.826659316     2.325654325
 C       -6.211108146    13.926376273     1.037811783
 H       -1.776467675    -0.914217636    -1.444992739
 C       -0.295017795    -0.178669173    -2.849329163
 C       -0.180314962    -2.369740941    -1.637602487
 H       -0.150077665    -1.938027246     1.511218060
 C       -0.189876160    -0.231303483     2.855296120
 C       -2.153522816    -1.099977703     1.570972656
 H        6.185208402     8.387459124   -17.777271920
 H        7.537926875     7.406023855   -17.234045490
 H        7.690474003     9.157001480   -17.241654571
 H        7.379649016     8.110993871   -13.568884527
 H        8.414837714     8.976543424   -14.718038470
 H        8.204944839     7.235178226   -14.851019137
 H        3.709685254     7.705409441   -16.620111652
 H        2.287452610     8.641729572   -17.050975787
 H        2.644692215     8.352279914   -15.354663256
 H        3.415650696    12.039211597   -16.049004474
 H        2.474327840    10.956205444   -15.007353680
 H        2.120118859    11.064814762   -16.726807751
 H        4.077321700     7.828654849    -3.244036452
 H        4.114129861     6.755377555    -1.853152401
 H        4.384703497     8.478147464    -1.624429449
 H        0.897087023     7.752100987    -0.235554096
 H        2.473548980     8.457633857     0.174041193
 H        2.327848830     6.730049747    -0.131295177
 H       -0.511563479    11.576107205    -3.455296934
 H       -1.989470168    10.618406195    -3.471240767
 H       -0.734411029    10.303395430    -4.664625098
 H       -0.643688611     7.367878112    -2.236315882
 H       -0.658168197     7.776920305    -3.966047229
 H       -2.013865692     8.209094730    -2.933188338
 H       -1.790645569    14.199421156    -1.297152389
 H       -2.317807293    13.845322608    -2.935883547
 H       -1.689194584    12.546081847    -1.929876734
 H       -5.512764255    12.089238565    -2.237256560
 H       -3.967627363    11.275559530    -2.548547874
 H       -4.416794320    12.711167790    -3.459994085
 H       -5.399061475    10.786325434     2.331854419
 H       -6.812765608    11.791682945     2.617346665
 H       -5.229426257    12.359423251     3.132132693
 H       -6.207425884    14.459726631     0.078774167
 H       -5.710008762    14.564784448     1.779125020
 H       -7.264186687    13.864773315     1.348983630
 H       -0.649648641     0.861571707    -2.877300767
 H       -0.764280477    -0.686108352    -3.704199070
 H        0.784053354    -0.165197003    -3.052685059
 H       -0.462725642    -2.976129748    -0.767324369
 H        0.905668225    -2.461877931    -1.771498537
 H       -0.639173025    -2.854853260    -2.511476301
 H        0.898698620    -0.133175561     2.955242941
 H       -0.525102028    -0.823266718     3.719126871
 H       -0.627828051     0.769448765     2.980311949
 H       -2.537787095    -1.666477161     0.713310384
 H       -2.698308233    -0.146298996     1.616687908
 H       -2.449368294    -1.664188126     2.467492762

