187   

Si        0.000000000     0.000000000     0.000000000
 C        1.865350912     0.000000000     0.000000000
 C       -0.680456106     1.710240740     0.000000000
 C        0.131187975     2.812033672    -0.287598848
 C       -0.397462942     4.102877914    -0.284133732
 C       -1.747935629     4.321191427     0.000110709
 C       -2.560812527     3.215512002     0.284504491
 C       -2.035791835     1.926410422     0.284291193
 C       -2.345187480     5.652153622     0.015418649
 C       -1.681553317     6.793416211    -0.235925715
 C       -2.283887391     8.122375006    -0.219295426
 C       -3.636886965     8.329990808     0.066474156
 C       -4.172949338     9.615677121     0.072067675
 C       -3.370179122    10.724398279    -0.226644569
 C       -2.016393242    10.518903402    -0.513960331
 C       -1.479440619     9.233189600    -0.502329158
Si       -4.108500076    12.406670899    -0.210471066
 C       -3.136689051    13.695934510    -1.068028907
 C       -2.328289592    13.493895913    -2.116232804
 C       -1.564650341    14.554997347    -2.777479330
 C       -0.751170206    14.213156425    -3.868667000
 C       -0.007112010    15.174834039    -4.531930768
 C       -0.044054514    16.516411018    -4.103033201
 C       -0.857724926    16.864317531    -3.015803624
 C       -1.616629729    15.891465671    -2.373145510
 N        0.742567588    17.450540214    -4.827769523
 C        2.192635324    17.156494408    -4.834627179
 C        0.442688204    18.872780240    -4.606201262
 C        2.765271513    16.644435844    -3.498729723
 C        3.865813975    17.506293737    -2.856932239
 N        3.510600728    18.862967181    -2.416297766
 C        2.384234906    19.058414496    -1.613008232
 C        1.851908704    18.007377405    -0.833210635
 C        0.734550508    18.215621450    -0.041370552
 C        0.146137338    19.483721478     0.068325936
 C        0.700557747    20.534189273    -0.666964046
 C        1.803113568    20.338602258    -1.486215790
 C        3.863011337    19.934796951    -3.360069199
 C       -1.033185470    19.653512241     0.917342407
 C       -1.669663230    20.820474457     1.090305691
Si       -3.142386526    21.032612050     2.150518774
 C       -4.122026362    19.477121035     2.199645524
 C       -4.471132506    18.879272578     0.979505864
 C       -5.211183210    17.702158935     0.958422366
 C       -5.645448475    17.108988054     2.152270253
 C       -5.301871069    17.708578888     3.365424177
 C       -4.539765115    18.877560911     3.390158095
 C       -6.417302353    15.876284600     2.068413122
 C       -6.886156815    15.174952788     3.114410145
 C       -7.656741137    13.942284192     2.984634577
 C       -7.969323907    13.390625479     1.738597749
 C       -8.706103204    12.213196524     1.641401649
 C       -9.118915683    11.537964498     2.796316653
 C       -8.793740756    12.078031366     4.045657425
 C       -8.071889168    13.266758434     4.138078718
Si      -10.090512582     9.986014586     2.610869888
 C      -11.446905028    10.204822224     1.350995524
 C       -8.884584904     8.628305940     2.028218740
 C      -10.822437507     9.452530963     4.283038225
 C       -2.570612342    21.525564501     3.898410181
 C       -4.214011267    22.440863670     1.453198062
 C       -5.832502080    12.368694385    -1.029214135
 C       -4.325518255    12.939423468     1.603544974
 C       -0.611756582    -0.923773540    -1.547886918
 C       -0.656013851    -0.904268834     1.541482979
 H        1.194714057     2.704135954    -0.517703552
 H        0.256265595     4.944021336    -0.507544656
 H       -3.615398755     3.363509123     0.508775813
 H       -2.718179514     1.103519321     0.514980605
 H       -3.412707847     5.670799232     0.254176960
 H       -0.614315635     6.776632671    -0.474426737
 H       -4.282778716     7.484261014     0.293503896
 H       -5.235032071     9.716454385     0.319179516
 H       -1.339323024    11.348582749    -0.740730694
 H       -0.422346921     9.094012007    -0.720032313
 H       -3.277019529    14.707431038    -0.649769159
 H       -2.175490061    12.504871040    -2.567914805
 H       -0.706762844    13.177606100    -4.205730541
 H        0.603602201    14.902363943    -5.388804835
 H       -0.886702086    17.888942895    -2.651257523
 H       -2.245833357    16.184626881    -1.531122821
 H        0.865264554    19.435872759    -5.457785147
 H        0.836512327    19.279545534    -3.660840624
 H       -0.649506152    19.033961011    -4.625928000
 H        4.480480138    20.682477072    -2.828308527
 H        2.981417014    20.443485749    -3.789157757
 H        4.441428340    19.550736481    -4.212969587
 H        2.315421065    17.025278093    -0.843962940
 H        0.320505624    17.377523021     0.523277746
 H        0.268723175    21.533913514    -0.596444387
 H        2.214253652    21.190842418    -2.016153220
 H       -1.362510007    18.719316919     1.394503093
 H       -1.316418578    21.742960103     0.606783161
 H       -4.160452977    19.300417362     0.016666894
 H       -5.458774200    17.241890297     0.003210528
 H       -5.623913120    17.264576030     4.304991204
 H       -4.295975768    19.298896693     4.368977658
 H       -6.617371230    15.540626972     1.044158447
 H       -6.702442090    15.503126608     4.139913935
 H       -7.659149896    13.895071119     0.823882913
 H       -8.939656875    11.846720627     0.636865666
 H       -9.087080160    11.593041932     4.980323404
 H       -7.832850633    13.672257887     5.119066617
 H        2.351001345    16.386996201    -5.626955263
 H        2.743095925    18.059147582    -5.173406627
 H        1.936899891    16.505868167    -2.770234351
 H        3.169767842    15.623068467    -3.645107283
 H        4.249783626    16.969549002    -1.951132879
 H        4.734950267    17.574924722    -3.550318931
 H        2.263038229    -1.029414944     0.049369643
 H        2.261413850     0.550837913     0.872510174
 H        2.274828887     0.471301697    -0.910588962
 H      -12.036405070     9.278074766     1.235187046
 H      -11.049154191    10.474951523     0.357315780
 H      -12.144051326    11.005915298     1.658595393
 H       -9.499903025     7.686248099     1.956154598
 C       -8.276857467     8.907468233     0.641243265
 C       -7.736479941     8.380118354     3.023276702
 H       -9.955537764     9.419016756     5.005596930
 C      -11.857024434    10.455396695     4.826211300
 C      -11.460630194     8.051588304     4.254319331
 H       -3.501614326    21.546835885     4.535196355
 C       -1.592348530    20.503518824     4.505674195
 C       -1.924163120    22.921438896     3.957993092
 H       -3.564040561    23.363194726     1.483783020
 C       -4.637341025    22.209695744    -0.008420864
 C       -5.470789530    22.712440953     2.298629329
 H       -6.543107646    11.986791224    -0.240432498
 C       -6.305213180    13.764298839    -1.478259909
 C       -5.910892873    11.421857000    -2.239648897
 H       -5.009716493    13.838065215     1.585743880
 C       -4.986022224    11.859768784     2.477415437
 C       -3.000888345    13.369549201     2.257830462
 H       -0.114042801    -1.935879303    -1.515246674
 C       -2.135011705    -1.143049264    -1.573845440
 C       -0.191856737    -0.227102895    -2.855245180
 H       -1.780671708    -0.905501251     1.443948762
 C       -0.190510982    -2.367936286     1.639655038
 C       -0.298101082    -0.175064976     2.849193671
 H       -9.029091712     9.039532984    -0.146435783
 H       -7.652873496     8.057493125     0.328016297
 H       -7.622027082     9.791144939     0.632833392
 H       -8.080528615     8.090801703     4.024072350
 H       -7.074762874     9.251454528     3.138289025
 H       -7.101263105     7.555492955     2.668131165
 H      -11.476881061    11.483513815     4.900784180
 H      -12.164454066    10.166674375     5.841582754
 H      -12.775196103    10.487886918     4.224019364
 H      -10.755935504     7.259072738     3.970825612
 H      -12.325764998     7.986822541     3.581382981
 H      -11.830746051     7.787437007     5.255821178
 H       -1.988002407    19.479659349     4.540639656
 H       -1.354946182    20.778074685     5.542984908
 H       -0.632719185    20.464419502     3.968853377
 H       -2.595885954    23.726568964     3.634299210
 H       -1.002863773    22.992127268     3.363388442
 H       -1.639351755    23.159058668     4.993293194
 H       -3.792916837    22.018940352    -0.684412544
 H       -5.147947844    23.102352323    -0.397188245
 H       -5.348934042    21.379267107    -0.118639300
 H       -5.247001189    22.979072891     3.339651631
 H       -6.167495991    21.862136323     2.315595157
 H       -6.032015165    23.559370467     1.878175135
 H       -6.247296358    14.529568138    -0.694378856
 H       -7.354560896    13.721055967    -1.801890403
 H       -5.733687263    14.141659851    -2.339714206
 H       -5.650365213    10.381694702    -2.002214048
 H       -5.264687116    11.735815242    -3.071188099
 H       -6.935290682    11.400687136    -2.636816048
 H       -5.980262110    11.554246725     2.121278585
 H       -5.144559305    12.248502888     3.494650162
 H       -4.372302454    10.955445704     2.584017539
 H       -2.497410589    14.189658652     1.728227874
 H       -2.283500523    12.543449212     2.355673156
 H       -3.190530827    13.735819427     3.277390615
 H       -2.508498873    -1.711501011    -0.712797461
 H       -2.415620113    -1.720560923    -2.466764786
 H       -2.700614303    -0.202200479    -1.628933496
 H        0.894183163    -0.104016926    -2.955218775
 H       -0.651738549     0.764215533    -2.977304172
 H       -0.513994843    -0.823948536    -3.720529325
 H       -0.471739611    -2.973191692     0.768248898
 H       -0.654415510    -2.851365120     2.511750815
 H        0.894644270    -2.463824444     1.777439625
 H       -0.650516871     0.866100759     2.875645638
 H        0.780739364    -0.164081777     3.053419338
 H       -0.769688697    -0.680425262     3.703981394

