187   

Si        0.000000000     0.000000000     0.000000000
 C        1.865306978     0.000000000     0.000000000
 C       -0.680720949     1.709685684     0.000000000
 C        0.091218889     2.791496975    -0.436319250
 C       -0.433305751     4.083532782    -0.432657465
 C       -1.735165181     4.324850658     0.014222444
 C       -2.508425454     3.239823347     0.444851378
 C       -1.992319337     1.947091462     0.428679719
 C       -2.325860191     5.658500838     0.036265333
 C       -1.696101517     6.776685758    -0.362217041
 C       -2.281887343     8.112303343    -0.342284078
 C       -1.511511156     9.193762582    -0.787461451
 C       -2.028939852    10.487651350    -0.786703171
 C       -3.321978191    10.731772993    -0.313911721
 C       -4.090446104     9.652936611     0.143419441
 C       -3.575697796     8.358629973     0.127689569
Si       -4.066859047    12.414299525    -0.284444079
 C       -4.865833714    12.694337594     1.336546897
 C       -4.426101372    12.119130290     2.464060241
 C       -5.030484351    12.311876334     3.781809995
 C       -4.466578936    11.646394299     4.881637386
 C       -4.996190349    11.791325059     6.151327648
 C       -6.160766845    12.565050571     6.353930055
 C       -6.726617289    13.231442141     5.252611096
 C       -6.144741881    13.125028701     3.994063293
 N       -6.671825355    12.690951177     7.658541027
 C       -6.713517373    11.461761142     8.481686957
 C       -7.850981535    13.553741254     7.832143507
 C       -7.053291972    10.153046968     7.749186951
 C       -8.456072158    10.129557861     7.112924664
 N       -8.501441016     9.448530166     5.800044355
 C       -7.841778880     8.199285460     5.744192598
 C       -8.078360522     7.266941331     6.776330907
 C       -7.451991581     6.032211227     6.758884367
 C       -6.607596932     5.662412224     5.700830985
 C       -6.395029696     6.578060908     4.667793910
 C       -7.002124397     7.828843202     4.679933979
 C       -8.259219308    10.358066915     4.667903457
 C       -5.974014966     4.343025169     5.739466832
 C       -5.149774460     3.871829955     4.794739992
Si       -4.348470547     2.227875769     4.823866115
 C       -4.613110004     1.368250265     3.218098395
 C       -5.307128124     1.985803767     2.172904836
 C       -5.500386815     1.322569572     0.961152469
 C       -5.031989432     0.019174777     0.779294460
 C       -4.344149837    -0.602054987     1.830848454
 C       -4.131241584     0.065486842     3.033337286
 C       -5.209275298    -0.715318531    -0.467386416
 C       -5.845411972    -0.244769594    -1.553302462
 C       -6.015563676    -0.991317023    -2.795195876
 C       -5.521668457    -2.287229565    -2.966969601
 C       -5.705562833    -2.966959014    -4.170537935
 C       -6.390448154    -2.363753325    -5.230064643
 C       -6.884868060    -1.063306815    -5.061212842
 C       -6.696474351    -0.386054292    -3.859585538
Si       -6.641393487    -3.247778960    -6.824925897
 C       -6.252876407    -5.065820865    -6.671509546
 C       -8.449365595    -3.003916848    -7.367131911
 C       -5.502003840    -2.488617093    -8.147577199
 C       -2.472748969     2.458104200     5.055789764
 C       -5.031137032     1.183412151     6.258870324
 C       -2.743411169    13.750568705    -0.568114564
 C       -5.375663927    12.555127519    -1.656352094
 C       -0.609102708    -0.911000354    -1.556760895
 C       -0.668441056    -0.899181172     1.538558416
 H        1.118252948     2.665859712    -0.788739312
 H        0.186264017     4.907367984    -0.780625588
 H       -3.529873299     3.400338899     0.790395867
 H       -2.652091850     1.139019804     0.767834184
 H       -3.353365846     5.699088471     0.410538505
 H       -0.669703419     6.733657143    -0.737497038
 H       -0.498685638     9.023992317    -1.147603173
 H       -1.386681984    11.288997670    -1.161364720
 H       -5.105758308     9.787391055     0.533015489
 H       -4.192041051     7.536582417     0.487799996
 H       -5.721156871    13.383531779     1.333226400
 H       -3.566974983    11.431204339     2.483054603
 H       -3.586190160    11.016788863     4.738209841
 H       -4.507974036    11.315594881     6.998546586
 H       -7.614950058    13.842801919     5.368095438
 H       -6.585166714    13.673261842     3.160186825
 H       -8.069015975    13.666985537     8.908177433
 H       -8.758211235    13.185116595     7.327890540
 H       -7.619156445    14.565744867     7.450960554
 H       -8.885022991    11.259274053     4.777047622
 H       -8.568650104     9.863090777     3.730321146
 H       -7.207734953    10.684121256     4.573462724
 H       -8.755302448     7.518717363     7.587875997
 H       -7.632637373     5.332207355     7.574715260
 H       -5.738199521     6.317704541     3.835959168
 H       -6.797780929     8.518780995     3.865434836
 H       -6.252307952     3.762097103     6.628983479
 H       -4.880483246     4.485483070     3.919195186
 H       -5.722218604     2.994100203     2.267570725
 H       -6.031796055     1.828596205     0.157188708
 H       -3.976315220    -1.619388014     1.710039507
 H       -3.572580951    -0.462890505     3.811439468
 H       -4.785649053    -1.724510456    -0.466795423
 H       -6.276212241     0.760467016    -1.557911015
 H       -4.986382930    -2.780232584    -2.157355588
 H       -5.298249691    -3.978965360    -4.245008016
 H       -7.427692686    -0.542068447    -5.854809607
 H       -7.085399009     0.624481116    -3.748249346
 H       -5.700721289    11.362171317     8.945861376
 H       -7.422112440    11.611391559     9.325337854
 H       -6.292112688     9.945338080     6.967706777
 H       -6.950897068     9.308050903     8.458156678
 H       -9.176675740     9.608675681     7.783549066
 H       -8.851223344    11.160366762     6.989175824
 H        2.262959129    -1.028165588     0.065162611
 H        2.261929516     0.564558391     0.863133813
 H        2.275038172     0.456894802    -0.917467662
 H       -6.445777458    -5.595242267    -7.621687023
 H       -6.879109502    -5.540734335    -5.894597217
 H       -5.195549801    -5.237534665    -6.404238644
 H       -8.590198674    -1.889716206    -7.482418823
 C       -8.778773829    -3.662304996    -8.718624627
 C       -9.453414243    -3.498152731    -6.310105734
 H       -5.652367345    -3.113903353    -9.074572035
 C       -5.846717794    -1.029653331    -8.495858706
 C       -4.014670337    -2.563250405    -7.756000369
 H       -2.030465479     1.420388654     5.010202812
 C       -1.832397292     3.297383244     3.937892697
 C       -2.106675565     3.076918066     6.416259290
 H       -4.986428010     1.854840465     7.166118328
 C       -6.499754747     0.778168145     6.035301931
 C       -4.214369826    -0.081610651     6.577179542
 H       -2.238491229    13.485491199    -1.541835064
 C       -3.328547413    15.167479577    -0.708695736
 C       -1.675623865    13.764367082     0.540802369
 H       -5.781383653    13.605988487    -1.588965966
 C       -4.792058628    12.356391811    -3.066134910
 C       -6.550211480    11.579603243    -1.460616181
 H       -0.053463317    -1.892192752    -1.574808917
 C       -2.116245156    -1.215292664    -1.540510636
 C       -0.276176159    -0.147970517    -2.852200184
 H       -1.794220855    -0.880052381     1.434623798
 C       -0.230392101    -2.370990748     1.634227491
 C       -0.308957823    -0.180083458     2.851136877
 H       -8.147908922    -3.303717583    -9.542274623
 H       -9.815903407    -3.433622743    -9.004365706
 H       -8.703090909    -4.757416572    -8.691520085
 H       -9.314984129    -3.026911460    -5.326420416
 H       -9.421608705    -4.585848997    -6.163054968
 H      -10.479589237    -3.258346727    -6.623253081
 H       -6.873091333    -0.898983945    -8.861298952
 H       -5.187706897    -0.670103453    -9.299714849
 H       -5.698772086    -0.342991899    -7.650252331
 H       -3.663408653    -3.585922840    -7.568057917
 H       -3.776401871    -1.960166784    -6.867711388
 H       -3.390731717    -2.169679354    -8.571316268
 H       -2.005182736     2.890712718     2.929328465
 H       -0.740887991     3.329941653     4.065190512
 H       -2.170227862     4.342539338     3.934187642
 H       -2.459475726     2.490809481     7.273856011
 H       -2.486458852     4.101715755     6.534950921
 H       -1.013590575     3.142102880     6.516802163
 H       -7.168396555     1.630347761     5.849607208
 H       -6.891542306     0.266636752     6.925444211
 H       -6.624988889     0.077835726     5.197088000
 H       -3.156230425     0.121641014     6.785712097
 H       -4.264114131    -0.835353488     5.780159572
 H       -4.615759153    -0.567839060     7.478417205
 H       -4.036098445    15.266282860    -1.541686931
 H       -2.521842749    15.888430417    -0.906139970
 H       -3.832590664    15.514819669     0.203764178
 H       -1.171700620    12.798077183     0.678969976
 H       -2.081619744    14.064456943     1.518165500
 H       -0.887739375    14.490980126     0.297729225
 H       -4.002421767    13.076259061    -3.317185228
 H       -5.579589672    12.488289263    -3.822066133
 H       -4.384563580    11.347047969    -3.221994302
 H       -7.047873846    11.683955372    -0.487044522
 H       -6.252806641    10.527134691    -1.573468220
 H       -7.321362948    11.762040243    -2.222554098
 H       -2.417626755    -1.861753780    -0.707264562
 H       -2.406680780    -1.739674639    -2.462939720
 H       -2.736727835    -0.306258490    -1.504535269
 H        0.794994132     0.049275522    -2.981900974
 H       -0.804339340     0.814204144    -2.925919446
 H       -0.589381207    -0.736618017    -3.726579547
 H       -0.517276873    -2.967337837     0.758547636
 H       -0.705186868    -2.849244357     2.502863054
 H        0.852092209    -2.486606610     1.774838991
 H       -0.661113096     0.862521935     2.882447122
 H        0.769059287    -0.171119248     3.055775789
 H       -0.782941027    -0.688778625     3.702327338

