187   

Si        0.000000000     0.000000000     0.000000000
 C        1.864957712     0.000000000     0.000000000
 C       -0.679133106     1.710446795     0.000000000
 C        0.159105005     2.818454167     0.158277646
 C       -0.364905579     4.111061120     0.156942642
 C       -1.735938583     4.324261750    -0.003803512
 C       -2.574584686     3.212487076    -0.161971741
 C       -2.055530187     1.921361557    -0.159426155
 C       -2.329201760     5.656796333    -0.011810998
 C       -1.644447445     6.804595614     0.130716916
 C       -2.250966739     8.131490059     0.120773032
 C       -3.625639703     8.322376814    -0.041535312
 C       -4.170243981     9.605843581    -0.045897320
 C       -3.344347825    10.726164140     0.081108668
 C       -1.964474108    10.539560807     0.240381638
 C       -1.427688218     9.255248427     0.271185850
Si       -4.028650364    12.434164910     0.079369279
 C       -2.914160249    13.514001379    -0.886096981
 C       -2.413492365    14.696351972    -0.505246022
 C       -1.522456629    15.507597029    -1.337986144
 C       -1.053116300    16.734015794    -0.843052507
 C       -0.209231093    17.534548299    -1.594090440
 C        0.219859489    17.120352439    -2.875421617
 C       -0.262267013    15.897608215    -3.377133930
 C       -1.137769092    15.123904032    -2.624445735
 N        1.076135298    17.954385160    -3.613669832
 C        2.147752266    18.652879492    -2.873300910
 C        1.499322258    17.500388541    -4.946659247
 C        2.932231652    17.789840668    -1.869870651
 C        3.967403576    16.842985480    -2.510499378
 N        3.807049572    15.391912922    -2.237179600
 C        3.355741473    15.125559772    -0.901627243
 C        4.327275776    15.122309462     0.110371432
 C        3.954093997    14.870986296     1.424225431
 C        2.611274123    14.652398859     1.761787570
 C        1.652257461    14.647458098     0.743883277
 C        2.019815763    14.855041725    -0.579027953
 C        3.028456798    14.676044965    -3.264485388
 C        2.257722993    14.390233681     3.160573337
 C        1.000770176    14.171789401     3.565116641
Si        0.419697579    13.834568243     5.264493537
 C       -0.643257215    12.338787968     5.129652131
 C       -0.209996276    11.285222148     4.314773578
 C       -0.980888434    10.132901986     4.181666378
 C       -2.203715113    10.010701825     4.848975486
 C       -2.635247903    11.067170883     5.660900057
 C       -1.863254287    12.218776312     5.802871484
 C       -3.038041697     8.819741359     4.733849408
 C       -2.723592889     7.749232099     3.985540264
 C       -3.541144287     6.549178436     3.855513311
 C       -4.764054400     6.385830668     4.511256247
 C       -5.505657161     5.215526070     4.350719750
 C       -5.022509674     4.169744180     3.556536197
 C       -3.787371579     4.323690548     2.915748590
 C       -3.056216506     5.497506431     3.068495949
Si       -5.998429089     2.625028870     3.342969573
 C       -7.039991354     2.262293769     4.846078513
 C       -7.124922986     2.831232621     1.821594654
 C       -4.805171338     1.180973700     3.001424783
 C        1.853268578    13.489467887     6.461793812
 C       -0.549869867    15.342165206     5.897384254
 C       -5.751220586    12.473169096    -0.726345861
 C       -4.197954775    12.997646950     1.884311974
 C       -0.667690361    -0.890981400    -1.543239134
 C       -0.601025369    -0.925235327     1.551368290
 H        1.239820232     2.714262248     0.286336683
 H        0.309344989     4.956124752     0.281459599
 H       -3.646112612     3.358989216    -0.293903946
 H       -2.757773107     1.092840484    -0.287688643
 H       -3.416480080     5.671229617    -0.140643249
 H       -0.558866732     6.796314598     0.260743065
 H       -4.288327116     7.465718450    -0.150971811
 H       -5.254606428     9.691231234    -0.155539977
 H       -1.273432300    11.383197260     0.347698725
 H       -0.355416692     9.127107623     0.404969270
 H       -2.671959460    13.090485354    -1.876159127
 H       -2.635316590    15.152259313     0.467824270
 H       -1.358715558    17.068143464     0.149645414
 H        0.116708834    18.492341218    -1.197525113
 H        0.024402108    15.550561015    -4.364826298
 H       -1.509886248    14.188906606    -3.048108181
 H        1.919665536    18.359742130    -5.499742926
 H        0.623290471    17.157922539    -5.525400902
 H        2.255481924    16.699054981    -4.926502178
 H        1.991740695    15.019289174    -3.390803453
 H        3.002528501    13.601600253    -3.005902445
 H        3.555345744    14.763736137    -4.229145055
 H        5.368265015    15.306623441    -0.147542026
 H        4.717301278    14.853200610     2.200813293
 H        0.599999589    14.467457655     0.974841703
 H        1.254068067    14.835655567    -1.355616924
 H        3.116288472    14.391421304     3.840900626
 H        0.165643688    14.186695867     2.838947329
 H        0.732864273    11.329408562     3.758421967
 H       -0.625809117     9.326801824     3.541098862
 H       -3.583436995    10.990494839     6.188645575
 H       -2.245923545    13.007783801     6.454602753
 H       -3.965385176     8.847019699     5.310903379
 H       -1.797401154     7.732437837     3.400421437
 H       -5.154209559     7.179917276     5.144381340
 H       -6.461554550     5.149670894     4.876146389
 H       -3.351554255     3.539893862     2.286711592
 H       -2.093418483     5.595186271     2.565688191
 H        2.843357059    19.124656312    -3.600609534
 H        1.661188310    19.498141103    -2.327431054
 H        3.448434035    18.458801629    -1.153912480
 H        2.219983644    17.220211290    -1.237496261
 H        4.011814194    16.994960909    -3.608383368
 H        4.983011877    17.101234684    -2.124095196
 H        2.262631759    -1.029995011    -0.037785894
 H        2.273563628     0.480717183     0.906230824
 H        2.262827812     0.540134661    -0.878106388
 H       -7.587749851     1.310250515     4.733198623
 H       -7.785079998     3.055303051     5.030788507
 H       -6.409829410     2.178503142     5.750479605
 H       -7.710056093     1.871067963     1.738571836
 C       -8.127561514     3.988753522     1.981360240
 C       -6.345358295     3.033421307     0.509224006
 H       -4.246311054     1.453955775     2.057699341
 C       -3.769338048     0.994529302     4.124143257
 C       -5.523609097    -0.157322029     2.752528278
 H        2.525531355    14.394462285     6.410435768
 C        1.390879750    13.319297744     7.920091318
 C        2.681841915    12.255689486     6.059664486
 H       -0.963272434    15.044219751     6.904315436
 C        0.341931978    16.581409210     6.098121018
 C       -1.732457013    15.728507669     4.991212384
 H       -6.391166589    11.763193115    -0.126383821
 C       -6.409694225    13.863454936    -0.673051960
 C       -5.736367282    11.985735688    -2.186458317
 H       -4.620878668    14.042515965     1.853861280
 C       -5.159398740    12.112238907     2.698152840
 C       -2.844196297    13.043791357     2.609135592
 H       -1.792062554    -0.885848940    -1.441073271
 C       -0.311789197    -0.156444671    -2.848446072
 C       -0.209580208    -2.356142437    -1.651484531
 H       -0.010565277    -1.886570652     1.576439772
 C       -0.306088815    -0.148340945     2.847594133
 C       -2.095791692    -1.288607981     1.522156097
 H       -8.786369920     3.877997479     2.851975807
 H       -8.787703350     4.040099345     1.103973866
 H       -7.637228020     4.970428912     2.056182718
 H       -5.677103780     2.196082057     0.269987727
 H       -5.751774115     3.959342016     0.508988721
 H       -7.045242725     3.117059649    -0.334519687
 H       -3.178699440     1.900347422     4.324802012
 H       -3.045667873     0.213994401     3.844588500
 H       -4.217255866     0.675278743     5.073894024
 H       -6.219034922    -0.125585322     1.904154372
 H       -6.081592030    -0.513879702     3.628190631
 H       -4.789022070    -0.942212694     2.519691593
 H        0.870672138    14.199222920     8.319363117
 H        2.259987700    13.154722322     8.573550678
 H        0.733853869    12.449253487     8.061870747
 H        3.089261374    12.313016325     5.041241135
 H        2.112449307    11.317842250     6.135902350
 H        3.544723845    12.145820058     6.731580734
 H        1.163698052    16.418224397     6.807234686
 H       -0.252694298    17.411118064     6.506383225
 H        0.779590813    16.949996459     5.159424516
 H       -2.458459231    14.915286230     4.851324821
 H       -1.414967815    16.068695803     3.995442198
 H       -2.291749303    16.562855854     5.437679105
 H       -6.543674631    14.242558479     0.348225213
 H       -7.413701201    13.821919184    -1.118761042
 H       -5.852997208    14.622950399    -1.240238087
 H       -5.301995786    10.984146536    -2.310331220
 H       -5.194651035    12.666869265    -2.857233033
 H       -6.763286898    11.925126634    -2.573728315
 H       -6.178746721    12.083786942     2.295015514
 H       -5.243664896    12.495559921     3.725163692
 H       -4.805708011    11.073863081     2.791554632
 H       -2.107787516    13.704376700     2.134733287
 H       -2.379775791    12.049471646     2.716944766
 H       -2.984168796    13.412247686     3.636613548
 H       -0.662085469     0.885457557    -2.869026674
 H       -0.787341571    -0.656498683    -3.704234856
 H        0.766342065    -0.147193972    -3.056432723
 H       -0.486597665    -2.964505858    -0.780794462
 H        0.874204720    -2.456065165    -1.797592789
 H       -0.681496330    -2.833450254    -2.522637956
 H        0.757925209     0.084099067     2.985189135
 H       -0.603499266    -0.745483421     3.721397408
 H       -0.862263066     0.798965957     2.913858095
 H       -2.376591187    -1.911387328     0.663622646
 H       -2.749239995    -0.403326651     1.526449968
 H       -2.356987258    -1.870181280     2.418518026

