187   

Si        0.000000000     0.000000000     0.000000000
 C        1.865295193     0.000000000     0.000000000
 C       -0.676372809     1.711631103     0.000000000
 C        0.152390999     2.819057926     0.204431371
 C       -0.375675110     4.110246575     0.201552027
 C       -1.744253955     4.319755957     0.018929927
 C       -2.574709422     3.208537844    -0.181092887
 C       -2.048264301     1.920793008    -0.197804738
 C       -2.344575110     5.647767638     0.007847455
 C       -1.675391096     6.802124699     0.167321980
 C       -2.304048655     8.119204291     0.151605652
 C       -1.506654506     9.257510296     0.328388122
 C       -2.072395944    10.529971194     0.319113604
 C       -3.448470924    10.693179099     0.115006977
 C       -4.247769257     9.558954079    -0.057773353
 C       -3.679880345     8.286738952    -0.026699236
Si       -4.204924515    12.369367722     0.101044290
 C       -6.021070441    12.202836394     0.211244309
 C       -6.913882401    12.796928917    -0.590740757
 C       -8.362480633    12.631532752    -0.461593805
 C       -9.204619136    13.303386705    -1.359259883
 C      -10.581652580    13.177729756    -1.276476930
 C      -11.163539483    12.315802727    -0.323057431
 C      -10.320072773    11.633327056     0.569556927
 C       -8.943067438    11.809745033     0.507218871
 N      -12.572935168    12.210876514    -0.265222362
 C      -13.248573540    12.113444189    -1.575563149
 C      -13.121152876    11.260084952     0.717419170
 C      -12.764463606    10.933135318    -2.439638109
 C      -12.485491103    11.393048984    -3.881895856
 N      -11.958049357    10.330035176    -4.747372466
 C      -10.644060659     9.876753307    -4.539923018
 C       -9.697500377    10.656794013    -3.843865869
 C       -8.405374719    10.191303167    -3.649624557
 C       -7.992319046     8.957687305    -4.170839860
 C       -8.924453677     8.198330005    -4.884174309
 C      -10.224448144     8.643195052    -5.077016265
 C      -12.967767999     9.315795016    -5.093249550
 C       -6.619424190     8.499621303    -3.944818640
 C       -6.142711331     7.335688042    -4.406664880
Si       -4.454307808     6.676230918    -4.180386254
 C       -3.748304754     6.138453894    -5.791052969
 C       -4.308247294     6.568174019    -6.999402960
 C       -3.765092318     6.154409631    -8.213625631
 C       -2.645607971     5.313407784    -8.249046134
 C       -2.083881814     4.892541914    -7.039752524
 C       -2.626609538     5.301361136    -5.823053848
 C       -2.113382689     4.907458431    -9.545687182
 C       -1.050355587     4.103755901    -9.718965636
 C       -0.518237265     3.697887731   -11.015481922
 C       -1.077850368     4.117155951   -12.225145350
 C       -0.536729840     3.704718151   -13.442754012
 C        0.573893964     2.855807722   -13.476487955
 C        1.136216262     2.432095860   -12.264578180
 C        0.597190396     2.850046334   -11.051082804
Si        1.300188999     2.302195924   -15.074380298
 C        0.178432396     2.697436941   -16.511670381
 C        2.971681739     3.170400056   -15.349993447
 C        1.603085763     0.425584719   -14.971878584
 C       -3.286123147     8.000903359    -3.474284111
 C       -4.558682875     5.217136447    -2.957249219
 C       -3.566862018    13.368896416     1.584640937
 C       -3.715374121    13.252457907    -1.511401489
 C       -0.664788137    -0.884405240    -1.549401246
 C       -0.606734439    -0.935408686     1.542209020
 H        1.229016469     2.715475474     0.363897619
 H        0.291945768     4.956703226     0.350609197
 H       -3.643384718     3.352427768    -0.334408825
 H       -2.741948511     1.092912666    -0.370049155
 H       -3.430523980     5.652602238    -0.140676216
 H       -0.593444247     6.807491319     0.320482848
 H       -0.434484052     9.149239525     0.477698843
 H       -1.403949409    11.381557721     0.472100302
 H       -5.328694503     9.626200599    -0.223463962
 H       -4.325669068     7.416204601    -0.143605057
 H       -6.348375845    11.555714593     1.042555459
 H       -6.625756049    13.457898621    -1.418607168
 H       -8.773522412    13.950376166    -2.124134966
 H      -11.213534866    13.748559248    -1.951232652
 H      -10.727584657    10.959403017     1.316384290
 H       -8.311391906    11.276891186     1.219836383
 H      -14.222319963    11.328445571     0.718899847
 H      -12.785223584    11.547896463     1.729870261
 H      -12.837897059    10.212210812     0.528452692
 H      -13.966169722     9.777130169    -5.165423060
 H      -13.018703557     8.488589012    -4.366407241
 H      -12.736721313     8.899860688    -6.091354688
 H       -9.975192350    11.621527663    -3.425234711
 H       -7.702477039    10.802100864    -3.078656652
 H       -8.632784666     7.234077835    -5.304396293
 H      -10.910940503     8.022514802    -5.642741608
 H       -6.015011032     9.204466155    -3.358806301
 H       -6.787879056     6.651668999    -4.983811863
 H       -5.179148359     7.230618039    -7.031443375
 H       -4.216487769     6.493475011    -9.143918738
 H       -1.213080430     4.239811814    -7.040073329
 H       -2.143546225     4.942987491    -4.908244443
 H       -2.651872921     5.311775841   -10.407827807
 H       -0.511847074     3.699808859    -8.856786588
 H       -1.945388748     4.774576082   -12.226465760
 H       -1.016983027     4.067590450   -14.355607774
 H        2.003697756     1.767119772   -12.229197089
 H        1.048634909     2.511630810   -10.120438311
 H      -14.344704270    12.041986104    -1.401861305
 H      -13.101428604    13.084560738    -2.101887848
 H      -11.840129208    10.489481473    -2.014230381
 H      -13.504632200    10.115389261    -2.431435699
 H      -13.417309057    11.786380457    -4.349197214
 H      -11.763741055    12.243711879    -3.886417215
 H        2.263400385    -1.030088454    -0.030404987
 H        2.273933846     0.487708066     0.902411393
 H        2.261986412     0.534383549    -0.882233639
 H        0.601474711     2.324106442   -17.461277472
 H        0.022646591     3.784909229   -16.621857732
 H       -0.812591525     2.225821954   -16.382075280
 H        3.326554831     2.830836579   -16.365925595
 C        2.842294734     4.704442652   -15.377789613
 C        4.046736775     2.785206401   -14.317935927
 H        2.326189972     0.275502489   -14.118053273
 C        0.320706312    -0.361346112   -14.646244892
 C        2.244325672    -0.163486335   -16.240992894
 H       -3.744978992     8.343016911    -2.500543290
 C       -1.872928565     7.471490524    -3.175922593
 C       -3.159278477     9.225153289    -4.399536656
 H       -3.535562554     5.128240907    -2.487834416
 C       -5.588478266     5.459877759    -1.838100693
 C       -4.882838201     3.872553048    -3.632071130
 H       -2.450891070    13.458209253     1.441759219
 C       -4.153639734    14.789668758     1.651926779
 C       -3.817147294    12.657082958     2.926188460
 H       -4.264433652    14.238166205    -1.502392414
 C       -2.209089390    13.549497662    -1.614672204
 C       -4.150906325    12.469710772    -2.763681764
 H       -1.787147055    -0.912713606    -1.429786465
 C       -0.350568814    -0.117647544    -2.846891474
 C       -0.168910842    -2.334317896    -1.689286652
 H       -0.103861633    -1.945024906     1.500700637
 C       -0.185937246    -0.245859113     2.853096628
 C       -2.128343641    -1.164970122     1.573369771
 H        2.152880005     5.070357065   -16.149442727
 H        3.818126929     5.161260972   -15.596328430
 H        2.515685179     5.122693476   -14.414650619
 H        4.265963041     1.710240811   -14.297961617
 H        3.788314627     3.097023614   -13.296100358
 H        4.995232093     3.286906399   -14.559230521
 H       -0.166649559    -0.031123943   -13.717550712
 H        0.556331633    -1.426024887   -14.507317820
 H       -0.428163876    -0.312417815   -15.447745965
 H        3.204962332     0.301029921   -16.498378639
 H        1.592475865    -0.094072480   -17.121845605
 H        2.450003859    -1.233919002   -16.095108334
 H       -1.857644318     6.616361999    -2.486323254
 H       -1.277402138     8.257167500    -2.686797301
 H       -1.322337145     7.183744354    -4.081436043
 H       -4.117319879     9.721472959    -4.604237090
 H       -2.699842466     8.983270897    -5.368579783
 H       -2.507993833     9.978612619    -3.932762196
 H       -5.446928484     6.408917356    -1.304015581
 H       -5.529010558     4.660170278    -1.087361958
 H       -6.623588237     5.455048503    -2.210395578
 H       -4.161491697     3.590165671    -4.411386303
 H       -5.881243957     3.850334278    -4.087990963
 H       -4.862125099     3.062897757    -2.889037942
 H       -3.940656825    15.391654788     0.759145913
 H       -3.719716778    15.336346456     2.501587222
 H       -5.242183631    14.796604534     1.806202113
 H       -3.384961171    11.647449024     2.970795337
 H       -4.884015687    12.573697840     3.174629260
 H       -3.353450591    13.224666199     3.745785161
 H       -1.830977417    14.179878625    -0.800052633
 H       -1.997345269    14.095592031    -2.545768561
 H       -1.594495071    12.638956592    -1.650122777
 H       -5.230105161    12.267689711    -2.804488205
 H       -3.632886790    11.503492854    -2.861874499
 H       -3.909573294    13.042313994    -3.670149106
 H       -0.732177834     0.913803576    -2.844411918
 H       -0.823731989    -0.617824845    -3.704109465
 H        0.723426062    -0.072838439    -3.070067941
 H       -0.419510250    -2.965075707    -0.826660393
 H        0.915208159    -2.402459999    -1.849949030
 H       -0.638810079    -2.808697600    -2.563259667
 H        0.899858020    -0.117807729     2.950358886
 H       -0.502041156    -0.850662929     3.715163356
 H       -0.650200255     0.742191752     2.983915444
 H       -2.503346788    -1.722124353     0.705612872
 H       -2.699686938    -0.229160961     1.647756249
 H       -2.399579388    -1.758940667     2.458482035

