187   

Si        0.000000000     0.000000000     0.000000000
 C        1.865295752     0.000000000     0.000000000
 C       -0.674487175     1.712212220     0.000000000
 C        0.162318076     2.821504082    -0.154616690
 C       -0.364989651     4.112762057    -0.152353380
 C       -1.740237006     4.322981584    -0.022394417
 C       -2.577864848     3.209081817     0.124706350
 C       -2.053188220     1.920243974     0.141249241
 C       -2.335379375     5.655070202    -0.014917657
 C       -1.646233803     6.803225273    -0.129290809
 C       -2.246644340     8.132943384    -0.121191439
 C       -3.624237402     8.333475091     0.009383913
 C       -4.157859514     9.620459668     0.012449748
 C       -3.323167175    10.737435762    -0.116299834
 C       -1.943950654    10.540280322    -0.246198470
 C       -1.413737618     9.251676213    -0.246951919
Si       -4.051288265    12.426149610    -0.109448962
 C       -2.754414776    13.714402930    -0.021347825
 C       -2.681473854    14.770934507    -0.841720064
 C       -1.649943721    15.807331430    -0.781476719
 C       -1.701858905    16.857959331    -1.709398223
 C       -0.754888244    17.868538409    -1.703693511
 C        0.245418813    17.905536622    -0.708303399
 C        0.290447772    16.856644475     0.230363341
 C       -0.629119451    15.816011193     0.171792481
 N        1.198885768    18.940533973    -0.719347178
 C        0.746271796    20.290131526    -1.106366114
 C        2.161882275    18.964789191     0.395025042
 C       -0.141731318    21.001484851    -0.067844169
 C       -1.642355443    20.822313031    -0.368811122
 N       -2.520509641    21.154239351     0.766077094
 C       -2.413257353    20.352013097     1.918416354
 C       -1.913074157    19.036654853     1.830252148
 C       -1.806127457    18.245187512     2.960229775
 C       -2.263730522    18.698745307     4.205844629
 C       -2.795188816    19.987624468     4.288395419
 C       -2.872697117    20.807688759     3.169064254
 C       -2.651603964    22.605164215     0.983954757
 C       -2.121652315    17.814160819     5.361051045
 C       -2.512282898    18.112905527     6.607700326
Si       -2.302420760    16.953755926     8.008331871
 C       -2.381672308    15.215827225     7.408772709
 C       -3.179296200    14.901549225     6.300547556
 C       -3.251835086    13.593366289     5.832798594
 C       -2.534705091    12.566060696     6.459552904
 C       -1.746208417    12.881031643     7.569560498
 C       -1.674210058    14.190563893     8.044088959
 C       -2.644921131    11.211655780     5.930184221
 C       -2.016780238    10.137077826     6.435922267
 C       -2.130526786     8.784030115     5.902373834
 C       -2.920831684     8.476017439     4.792014094
 C       -2.999993233     7.167723923     4.315988160
 C       -2.306566197     6.135608939     4.956511801
 C       -1.517542340     6.440471606     6.073591899
 C       -1.427397042     7.750313157     6.535860840
Si       -2.403631200     4.405209115     4.337167356
 C       -3.776582665     4.226712913     3.088462600
 C       -0.742483413     3.985887413     3.498264907
 C       -2.708193219     3.225826475     5.798078988
 C       -0.634311508    17.286195792     8.858192603
 C       -3.703206256    17.244831160     9.260112248
 C       -5.134810628    12.676130805    -1.652021456
 C       -5.140500300    12.584544969     1.446735116
 C       -0.604325826    -0.942358500    -1.538056917
 C       -0.665289393    -0.868964332     1.558067052
 H        1.244474310     2.719516650    -0.272040698
 H        0.309160086     4.960161759    -0.264769469
 H       -3.652890524     3.349453689     0.223285403
 H       -2.754541114     1.090944555     0.269199861
 H       -3.424869570     5.669193929     0.084859068
 H       -0.557578629     6.792933858    -0.236385619
 H       -4.293363277     7.481575029     0.111969774
 H       -5.241635242     9.715815411     0.124173193
 H       -1.246602284    11.377104702    -0.351171486
 H       -0.338020469     9.117237851    -0.344751615
 H       -2.022501450    13.564897867     0.788334845
 H       -3.408138993    14.944875734    -1.647801813
 H       -2.489351832    16.872891172    -2.463949148
 H       -0.785010959    18.631284568    -2.476743175
 H        1.044949369    16.841556981     1.010879619
 H       -0.559473240    15.006080612     0.900421850
 H        2.867196158    19.802017405     0.263813678
 H        2.760421736    18.035689065     0.374548645
 H        1.689261577    19.063161751     1.386909228
 H       -2.653275994    23.136542831     0.018255087
 H       -1.850371214    23.027055661     1.611582798
 H       -3.626705366    22.811055857     1.462419207
 H       -1.599932397    18.625401071     0.871856716
 H       -1.384438750    17.242324276     2.866051415
 H       -3.158920851    20.364123270     5.244883582
 H       -3.292972373    21.801923753     3.275527215
 H       -1.651817720    16.851835295     5.102569003
 H       -2.970506280    19.080099841     6.853750004
 H       -3.766903771    15.661208796     5.772592258
 H       -3.877963001    13.370641954     4.969816937
 H       -1.181281717    12.101566036     8.076789694
 H       -1.045035358    14.375097936     8.918710443
 H       -3.296648356    11.113040757     5.056171532
 H       -1.364106021    10.232443607     7.308170410
 H       -3.474450823     9.260364801     4.278501659
 H       -3.621520164     6.990586563     3.433613793
 H       -0.952384478     5.673455430     6.609731749
 H       -0.805559279     7.970518644     7.400989046
 H        1.660663616    20.899855385    -1.297738783
 H        0.229263120    20.228355864    -2.089739760
 H        0.082419405    20.619869850     0.948756552
 H        0.105155000    22.077434002    -0.033315093
 H       -1.940504092    21.449507996    -1.237888606
 H       -1.862740315    19.770734122    -0.672806980
 H        2.262885117    -1.029852506     0.038936389
 H        2.264265091     0.541823711     0.876640174
 H        2.272796655     0.478857344    -0.907678985
 H       -3.849895170     3.184629525     2.729143117
 H       -3.601982153     4.874025737     2.210158690
 H       -4.751797911     4.500763206     3.527749714
 H       -0.997141061     3.282959472     2.650182057
 C       -0.071169065     5.233093281     2.893448050
 C        0.279930413     3.281668285     4.407240718
 H       -1.766265404     3.249087474     6.419233948
 C       -3.874662731     3.678381676     6.695411051
 C       -2.952728500     1.769589517     5.360206902
 H       -0.582460340    16.578598083     9.735391020
 C        0.560836984    16.990987836     7.933769598
 C       -0.504982896    18.721781115     9.398328975
 H       -3.610779490    18.320031330     9.588634147
 C       -5.094807743    17.055526820     8.629516413
 C       -3.594286314    16.351479049    10.508146211
 H       -5.455673959    13.758400326    -1.628635079
 C       -4.353445082    12.432229464    -2.956547207
 C       -6.408006013    11.811843502    -1.675743635
 H       -6.075724096    11.992272758     1.232014265
 C       -4.472377845    11.977779546     2.693533911
 C       -5.548966425    14.035886528     1.749211051
 H       -0.076500837    -1.939570879    -1.507216450
 C       -2.119926417    -1.209352817    -1.554758982
 C       -0.214386288    -0.237264640    -2.850332441
 H       -1.790444391    -0.841206800     1.468514343
 C       -0.236162513    -2.342228973     1.670933010
 C       -0.278982623    -0.132881138     2.853843799
 H       -0.722135903     5.784136322     2.198623682
 H        0.815912132     4.938242255     2.315659515
 H        0.271826057     5.946811369     3.654959245
 H       -0.084256509     2.333318294     4.821156831
 H        0.611168074     3.909359380     5.244675120
 H        1.183321642     3.037558799     3.828720772
 H       -3.744339175     4.693861499     7.096053804
 H       -3.961731390     3.013065309     7.565703902
 H       -4.846036240     3.648660983     6.184669341
 H       -2.146756544     1.357825930     4.737931196
 H       -3.893622966     1.644034587     4.807977043
 H       -3.024684180     1.119428332     6.243433858
 H        0.575959413    15.958723784     7.557122741
 H        1.504453720    17.134335268     8.478312941
 H        0.601945587    17.660370602     7.062289741
 H       -1.283062000    18.985543555    10.125894388
 H       -0.518954733    19.479566845     8.602428627
 H        0.455540832    18.841897449     9.919693229
 H       -5.271123706    17.702441825     7.759164669
 H       -5.877425592    17.301670610     9.360836510
 H       -5.283234162    16.018762881     8.315123466
 H       -2.663689893    16.499854734    11.070497576
 H       -3.678329095    15.279982352    10.276217009
 H       -4.413744460    16.578072286    11.205548492
 H       -3.442257430    13.039506511    -3.046275675
 H       -4.978919517    12.683670161    -3.824517784
 H       -4.058048646    11.380726467    -3.084329375
 H       -7.069726400    11.984283327    -0.817729112
 H       -6.194367178    10.735509043    -1.728252966
 H       -7.002761888    12.046985964    -2.570804219
 H       -4.216405601    10.915019629     2.572243671
 H       -5.160314246    12.033443154     3.549819817
 H       -3.552850057    12.506967234     2.983633716
 H       -6.099132692    14.514178405     0.928965774
 H       -4.691036298    14.682267215     1.989668004
 H       -6.214717511    14.067187746     2.623535706
 H       -2.473614873    -1.772627032    -0.682047753
 H       -2.384275404    -1.812378371    -2.435849601
 H       -2.714501872    -0.288125364    -1.627340071
 H        0.866699541    -0.080392371    -2.957729769
 H       -0.705147021     0.739087813    -2.972436697
 H       -0.523106027    -0.846572822    -3.711838023
 H       -0.538278494    -2.951241060     0.809268684
 H       -0.705421571    -2.803778513     2.551962321
 H        0.847227192    -2.464142716     1.801690799
 H       -0.595255807     0.921436578     2.864022587
 H        0.800228786    -0.155005134     3.054290961
 H       -0.764250430    -0.610220511     3.716919230

