187   

Si        0.000000000     0.000000000     0.000000000
 C        1.865275069     0.000000000     0.000000000
 C       -0.665258119     1.716962711     0.000000000
 C        0.067252551     2.760034771     0.577285960
 C       -0.432604941     4.061789862     0.579583285
 C       -1.677391096     4.350113826     0.013536878
 C       -2.413044810     3.303328197    -0.557337953
 C       -1.916271567     2.002513920    -0.561683045
 C       -2.240398051     5.696087555    -0.007153191
 C       -1.640522318     6.784893791     0.503317935
 C       -2.205312095     8.130176165     0.481603369
 C       -1.471702030     9.178842069     1.051113900
 C       -1.970886280    10.479351247     1.053506358
 C       -3.211453894    10.764602640     0.472413072
 C       -3.945103848     9.718135466    -0.099492115
 C       -3.448629220     8.416015984    -0.090086758
Si       -3.906095555    12.466987554     0.454357894
 C       -4.835379439    12.791005700    -1.087058781
 C       -4.540916182    12.213154909    -2.259618926
 C       -5.268605687    12.455635181    -3.505961817
 C       -4.856393795    11.784213487    -4.666776723
 C       -5.509745560    11.977075477    -5.872653012
 C       -6.585950878    12.882989245    -5.958075154
 C       -7.007897813    13.547855688    -4.797050517
 C       -6.369259658    13.311466540    -3.584592691
 N       -7.220105179    13.042964712    -7.216481242
 C       -6.329550569    13.424784562    -8.331440314
 C       -8.480423860    13.805323757    -7.210223107
 C       -5.728443562    14.839310284    -8.224950765
 C       -4.302532710    14.822110246    -7.639166167
 N       -3.881719622    16.074626139    -6.972337015
 C       -4.480653212    16.201856825    -5.671282713
 C       -3.739806486    15.670862034    -4.604046815
 C       -4.239737743    15.748448099    -3.313067723
 C       -5.487878148    16.338283332    -3.061244407
 C       -6.211745153    16.872707506    -4.130024921
 C       -5.708606065    16.824138880    -5.426501122
 C       -4.041047798    17.270046540    -7.819383883
 C       -5.971518330    16.395551092    -1.678896300
 C       -7.143595610    16.933057856    -1.319533772
Si       -7.802718219    17.035452096     0.381756791
 C       -8.352840653    18.750123857     0.740605360
 C       -7.736864175    19.829596100     0.094759885
 C       -8.145776181    21.134135290     0.359054654
 C       -9.168581433    21.392285344     1.281374357
 C       -9.776090573    20.312489487     1.928464134
 C       -9.373273590    19.004385942     1.662338591
 C       -9.561518365    22.776535162     1.523982950
 C      -10.527737513    23.159807836     2.375705327
 C      -10.920450093    24.544117549     2.618103576
 C      -10.313682756    25.624038857     1.971681958
 C      -10.720661835    26.932198518     2.233566812
 C      -11.751349278    27.188069090     3.143351655
 C      -12.362701955    26.106370510     3.791766988
 C      -11.949879600    24.802310485     3.533333462
Si      -12.299424393    28.909086829     3.499309629
 C      -11.632471337    30.115090038     2.242191605
 C      -14.202679949    28.943346846     3.497571714
 C      -11.686750238    29.423280664     5.226629728
 C       -9.240325697    15.798143962     0.515367085
 C       -6.473313734    16.555489533     1.655341307
 C       -5.091806084    12.708612918     1.919707616
 C       -2.487589387    13.730505337     0.589218800
 C       -0.647397800    -0.925266463    -1.532750669
 C       -0.632832767    -0.902227752     1.551612294
 H        1.046682343     2.596378225     1.035468873
 H        0.159258285     4.856146105     1.030735612
 H       -3.385444325     3.505620646    -1.002578138
 H       -2.536927159     1.227434632    -1.019581945
 H       -3.222736732     5.773503397    -0.482669411
 H       -0.658595414     6.708188159     0.979166048
 H       -0.501278976     8.978142886     1.500952626
 H       -1.355922327    11.253852260     1.519448645
 H       -4.921805582     9.882715029    -0.568206925
 H       -4.040014045     7.619430692    -0.538099283
 H       -5.660809421    13.513917658    -0.994805449
 H       -3.717042951    11.494141291    -2.376883121
 H       -4.012590122    11.094846544    -4.621134166
 H       -5.199828966    11.422160103    -6.754492196
 H       -7.825759687    14.261122394    -4.828886692
 H       -6.721578239    13.834412926    -2.692225433
 H       -8.952887630    13.726044174    -8.204235186
 H       -8.365325518    14.872721076    -6.964251076
 H       -9.176267020    13.347159894    -6.484285730
 H       -3.415989747    17.144761830    -8.720114995
 H       -3.658439344    18.148218989    -7.269844336
 H       -5.071595347    17.482921721    -8.137661093
 H       -2.778245596    15.199519633    -4.804786042
 H       -3.660188138    15.328013763    -2.489329470
 H       -7.179067552    17.343921060    -3.955244648
 H       -6.275975439    17.262280010    -6.241803767
 H       -5.269639268    15.957583994    -0.955935315
 H       -7.826968910    17.361787476    -2.072427090
 H       -6.930918210    19.687157210    -0.632893226
 H       -7.661318996    21.961260382    -0.156735547
 H      -10.573490693    20.485846160     2.648724159
 H       -9.886538807    18.200446623     2.196775321
 H       -9.000654917    23.518587887     0.947984114
 H      -11.088705890    22.417861097     2.951475992
 H       -9.512595875    25.451806309     1.255161798
 H      -10.207053171    27.735675179     1.698321406
 H      -13.174024801    26.245668541     4.511868342
 H      -12.435723618    23.975443733     4.047839202
 H       -5.523709516    12.661822341    -8.414092331
 H       -6.922138279    13.335294256    -9.270863148
 H       -5.718001889    15.318455281    -9.219689647
 H       -6.382083782    15.473744022    -7.595636746
 H       -4.202358875    13.995813673    -6.895353968
 H       -3.560524471    14.615720515    -8.441700751
 H        2.263697651    -1.029056325    -0.049216394
 H        2.277503927     0.473309670     0.908020371
 H        2.258334059     0.551285865    -0.873855418
 H      -12.001872575    31.137823511     2.436927597
 H      -11.948772590    29.837378249     1.220313419
 H      -10.529101105    30.152217998     2.255352589
 H      -14.525567983    28.233290557     4.313655862
 C      -14.792334339    30.328331157     3.818046201
 C      -14.799708184    28.438502688     2.171512658
 H      -12.003100622    30.498824817     5.354530573
 C      -12.309840496    28.604419496     6.371253177
 C      -10.153504124    29.358371716     5.351907587
 H       -9.609295766    15.860958537     1.579518838
 C      -10.413145673    16.153001645    -0.415640982
 C       -8.806736158    14.345961115     0.244833211
 H       -6.022452099    15.588686528     1.283952199
 C       -5.352054431    17.606146471     1.747009422
 C       -7.035754630    16.305196091     3.065028212
 H       -5.479909065    13.767116137     1.837931305
 C       -6.298714759    11.755646380     1.858945873
 C       -4.404443263    12.561435703     3.287726039
 H       -1.930572311    13.464123368     1.533714608
 C       -1.506409205    13.625728785    -0.592528586
 C       -2.956373758    15.189067051     0.717296517
 H       -1.773094577    -0.917107513    -1.448381260
 C       -0.267138618    -0.225213801    -2.850102985
 C       -0.193534574    -2.394689331    -1.598731588
 H       -0.172828194    -1.931782956     1.518991233
 C       -0.185323844    -0.220574997     2.857551892
 C       -2.163566812    -1.062711121     1.577034425
 H      -14.464197308    30.727496436     4.786504797
 H      -15.889298317    30.266743534     3.867202387
 H      -14.561825708    31.079591637     3.051055701
 H      -14.467919041    27.424835946     1.904597429
 H      -14.573445519    29.094949732     1.320851986
 H      -15.895712837    28.393331025     2.244278043
 H      -13.404756589    28.667652618     6.406777930
 H      -11.950031636    28.980249646     7.340309037
 H      -12.033538525    27.541190224     6.334916017
 H       -9.628508660    29.983178912     4.617941258
 H       -9.760669757    28.335490387     5.259735340
 H       -9.840695072    29.719675246     6.342124914
 H      -10.803554224    17.168244059    -0.260151846
 H      -11.256897308    15.471710422    -0.235678408
 H      -10.159740582    16.054178096    -1.480394076
 H       -8.020463315    13.991122231     0.925749889
 H       -8.453632623    14.189020307    -0.784768891
 H       -9.660260174    13.667152195     0.382382341
 H       -4.838266082    17.781462232     0.791604774
 H       -4.582046334    17.279416571     2.460240259
 H       -5.707669184    18.580683030     2.112043518
 H       -7.771287180    15.491486830     3.102849162
 H       -7.499569554    17.197830596     3.507208264
 H       -6.223898233    16.014374704     3.747860855
 H       -6.871710021    11.834105283     0.924431747
 H       -7.000407487    11.982237288     2.674032309
 H       -6.015838961    10.700634597     1.984689526
 H       -3.587920154    13.277738299     3.444830806
 H       -4.001054925    11.553249453     3.458927094
 H       -5.129329677    12.740282277     4.095044363
 H       -1.059222532    12.628020931    -0.701194234
 H       -0.668280908    14.322414353    -0.451634779
 H       -1.966652462    13.885318925    -1.557233543
 H       -3.618640326    15.359627519     1.576517189
 H       -3.470272657    15.554611380    -0.183074602
 H       -2.090318709    15.850748956     0.863713316
 H       -0.600174259     0.821287183    -2.899108986
 H       -0.739218200    -0.738221556    -3.700022250
 H        0.813661547    -0.236445892    -3.044596099
 H       -0.497152627    -2.983240116    -0.723334795
 H        0.892968872    -2.503184173    -1.714463074
 H       -0.645598811    -2.887899226    -2.471571786
 H        0.904827699    -0.142703848     2.957440000
 H       -0.531938559    -0.802553219     3.723664422
 H       -0.605247569     0.788490231     2.978086474
 H       -2.556021327    -1.631617839     0.724650049
 H       -2.693723018    -0.100182413     1.611381801
 H       -2.469130192    -1.612773816     2.478929749

