187   

Si        0.000000000     0.000000000     0.000000000
 C        1.865308546     0.000000000     0.000000000
 C       -0.659775017     1.719158534     0.000000000
 C        0.018830182     2.726061110    -0.696377915
 C       -0.466763177     4.032808209    -0.706778984
 C       -1.643619904     4.363294021    -0.028778062
 C       -2.325792279     3.352847376     0.661057235
 C       -1.843587449     2.046229487     0.672472915
 C       -2.188388512     5.716937763    -0.012594242
 C       -1.632757550     6.771641630    -0.632861286
 C       -2.175012433     8.126118489    -0.618507201
 C       -3.351076518     8.460604993     0.057990050
 C       -3.833355542     9.769253046     0.044977531
 C       -3.158279266    10.768307560    -0.662810784
 C       -1.980827412    10.434868239    -1.346195409
 C       -1.494276041     9.130973475    -1.319010218
Si       -3.762678283    12.505643733    -0.704076930
 C       -3.472090432    13.276418253    -2.336255189
 C       -3.451456696    12.595282177    -3.490047458
 C       -3.219984607    13.200989871    -4.801839649
 C       -3.223076218    12.375932209    -5.936603944
 C       -3.009412737    12.896746631    -7.201480819
 C       -2.733078459    14.271224819    -7.371247596
 C       -2.728081199    15.099359303    -6.233750672
 C       -2.990143462    14.567634237    -4.976930951
 N       -2.519676828    14.775749397    -8.667313693
 C       -1.758671694    13.916657018    -9.592169048
 C       -2.163862311    16.199104614    -8.782769863
 C       -0.370568104    13.506819846    -9.057971457
 C        0.619534173    13.211828512   -10.199432716
 N        1.533131861    14.331399008   -10.525858602
 C        0.858576242    15.535081629   -10.869089538
 C        0.045848273    15.517083465   -12.020378440
 C       -0.637398481    16.657696187   -12.407515351
 C       -0.507114562    17.856238315   -11.688028428
 C        0.319740495    17.874980932   -10.563191375
 C        1.004114633    16.733783434   -10.156800724
 C        2.622354599    14.469437136    -9.542635984
 C       -1.252453024    19.032378129   -12.141411838
 C       -1.208258990    20.227496632   -11.537796539
Si       -2.139532714    21.696449098   -12.104552866
 C       -2.400551670    21.686970802   -13.924445778
 C       -1.435478134    21.118293810   -14.763720085
 C       -1.618632390    21.103290161   -16.145427677
 C       -2.761858494    21.665695336   -16.720424607
 C       -3.722343652    22.242004990   -15.878985315
 C       -3.544178923    22.255587935   -14.497679413
 C       -2.995870070    21.673025203   -18.160661305
 C       -2.157638199    21.155533408   -19.074709464
 C       -2.391599622    21.162834944   -20.514968320
 C       -3.535733503    21.721748538   -21.089981272
 C       -3.719133535    21.706955414   -22.472627390
 C       -2.763629332    21.124221932   -23.310876914
 C       -1.615752615    20.561330487   -22.736357224
 C       -1.432550370    20.583202779   -21.356618551
Si       -2.990050706    21.096132671   -25.137619729
 C       -4.726627659    21.575027378   -25.622010987
 C       -1.773042946    22.313802741   -25.949554935
 C       -2.594829272    19.340463144   -25.758195185
 C       -3.811923945    21.728872294   -11.197981991
 C       -1.153961377    23.253133349   -11.633908102
 C       -5.623615577    12.571866955    -0.314077701
 C       -2.827899608    13.510165081     0.613683211
 C       -0.633521173    -0.896548190    -1.554934657
 C       -0.645013636    -0.934864848     1.527920484
 H        0.944288904     2.529137128    -1.244993785
 H        0.082319562     4.798152007    -1.252232316
 H       -3.245147908     3.587769973     1.194190446
 H       -2.421677529     1.300541043     1.224991839
 H       -3.114959271     5.830755575     0.557475928
 H       -0.705950945     6.656578697    -1.202728670
 H       -3.900421885     7.698571747     0.607387561
 H       -4.752943140     9.971652829     0.600666868
 H       -1.412607216    11.176810925    -1.917733807
 H       -0.576340632     8.891415528    -1.852241526
 H       -3.329533134    14.366837622    -2.312810830
 H       -3.599949859    11.506619659    -3.538330225
 H       -3.410046724    11.307059970    -5.824656913
 H       -3.056033210    12.240404156    -8.065702792
 H       -2.523633301    16.161504288    -6.321236837
 H       -2.996581397    15.233928485    -4.113320430
 H       -2.091152027    16.479902582    -9.850659557
 H       -1.206008853    16.457555586    -8.303632972
 H       -2.969544763    16.815109724    -8.345757970
 H        3.192277848    13.523897027    -9.513622701
 H        2.286936365    14.703591813    -8.520341054
 H        3.322110488    15.254801327    -9.878354913
 H       -0.032435777    14.604419052   -12.607596979
 H       -1.272937267    16.626708330   -13.293668999
 H        0.441291146    18.795608313    -9.990890323
 H        1.635493219    16.781908496    -9.274573428
 H       -1.854860623    18.842528760   -13.041272420
 H       -0.603073164    20.389758077   -10.632795447
 H       -0.517535740    20.667642331   -14.371081040
 H       -0.856712498    20.649303044   -16.776611587
 H       -4.619352022    22.685881396   -16.306510077
 H       -4.327436286    22.720022102   -13.892465795
 H       -3.933662915    22.144154837   -18.469318265
 H       -1.219616829    20.684457781   -18.766087956
 H       -4.297144866    22.177370419   -20.459548110
 H       -4.633594879    22.161383925   -22.863870759
 H       -0.835706501    20.090995866   -23.341815339
 H       -0.533835886    20.142403028   -20.929224410
 H       -2.370460170    13.013050617    -9.812873450
 H       -1.661338952    14.456256604   -10.562892680
 H        0.029428362    14.305042234    -8.403285295
 H       -0.471352620    12.625025078    -8.398335299
 H        1.244880442    12.326940925    -9.944681143
 H        0.077372880    12.935042897   -11.131317534
 H        2.263597689    -1.028894385     0.052446932
 H        2.258352321     0.554426330     0.871985894
 H        2.277682636     0.471292777    -0.908904486
 H       -4.864160657    21.518283279   -26.716670500
 H       -4.969238757    22.605855275   -25.309642659
 H       -5.468119903    20.898580958   -25.159466081
 H       -2.009017696    22.288714793   -27.052778252
 C       -1.964952468    23.758590229   -25.453022700
 C       -0.295001846    21.923637349   -25.770480376
 H       -1.522163895    19.143594561   -25.466558224
 C       -3.469567682    18.267420065   -25.084906393
 C       -2.703209195    19.189897937   -27.285917060
 H       -4.328432059    22.676292776   -11.526986857
 C       -4.705821039    20.536068746   -11.581509205
 C       -3.670223377    21.772709904    -9.665943132
 H       -1.032181407    23.220397982   -10.512913992
 C        0.248751291    23.266935604   -12.267477354
 C       -1.880553838    24.559304717   -11.998448231
 H       -5.746387384    12.107703923     0.706812531
 C       -6.179984136    14.005752377    -0.252609894
 C       -6.459829395    11.756301648    -1.316518717
 H       -3.241379035    14.558291710     0.557852736
 C       -3.048592138    12.983986827     2.042566240
 C       -1.315803027    13.577703382     0.333454400
 H       -0.171331278    -1.925286877    -1.527104518
 C       -2.163929171    -1.059897427    -1.578025837
 C       -0.189888029    -0.209517131    -2.859360293
 H       -1.771319192    -0.906073213     1.457379623
 C       -0.216898643    -2.413171203     1.567365997
 C       -0.235054719    -0.262574912     2.850907039
 H       -2.978058618    24.146649218   -25.619542288
 H       -1.284990097    24.435066628   -25.990568743
 H       -1.734923761    23.876967086   -24.384317092
 H       -0.054140184    20.930768157   -26.170803430
 H        0.029613768    21.953053754   -24.720804759
 H        0.348372329    22.634918813   -26.308923784
 H       -3.399577876    18.276503625   -23.987709755
 H       -3.149776130    17.265253701   -25.404236300
 H       -4.532018011    18.351404358   -25.349160524
 H       -2.050703160    19.878293649   -27.838401811
 H       -3.726934568    19.327955557   -27.658306593
 H       -2.402318950    18.175205357   -27.585000093
 H       -4.902503867    20.466218013   -12.660403177
 H       -5.687708906    20.628516774   -11.096089545
 H       -4.291577709    19.569683205   -11.258439084
 H       -3.102280213    22.639326537    -9.304595694
 H       -3.201899224    20.867689916    -9.254130302
 H       -4.663884229    21.843163113    -9.199798858
 H        0.854365461    22.387885029   -12.008407085
 H        0.812133399    24.143532129   -11.917032352
 H        0.221123794    23.339249806   -13.364513821
 H       -2.856936432    24.666883490   -11.509027093
 H       -2.033933788    24.676344863   -13.081018561
 H       -1.281112411    25.424653544   -11.679875504
 H       -5.688525572    14.632258965     0.502452401
 H       -7.246283385    13.983480199     0.015001855
 H       -6.117407253    14.529697751    -1.216802304
 H       -6.163090582    10.700226465    -1.377810076
 H       -6.423276079    12.167675435    -2.336124775
 H       -7.517878637    11.762463026    -1.019554858
 H       -4.101197282    12.994595759     2.353017263
 H       -2.509544361    13.615325867     2.763695696
 H       -2.667924949    11.962560842     2.186378980
 H       -1.073137694    13.994234538    -0.653681763
 H       -0.823659666    12.597474253     0.410838586
 H       -0.824078429    14.226803823     1.071741804
 H       -2.553723669    -1.632655994    -0.726928511
 H       -2.470258192    -1.606914870    -2.481461419
 H       -2.696179248    -0.098378140    -1.607124962
 H        0.899863798    -0.129311881    -2.961095268
 H       -0.612662850     0.798866883    -2.975631946
 H       -0.537023766    -0.789268027    -3.726740523
 H       -0.539952321    -2.983258998     0.686750718
 H       -0.668701142    -2.911310017     2.437535537
 H        0.868663464    -2.542539568     1.669802640
 H       -0.543415699     0.790177341     2.919903736
 H        0.847478863    -0.300660225     3.032482580
 H       -0.708601281    -0.778211435     3.698469951

