187   

Si        0.000000000     0.000000000     0.000000000
 C        1.865575216     0.000000000     0.000000000
 C       -0.683869805     1.709104241     0.000000000
 C        0.149094100     2.825147724    -0.125018291
 C       -0.385811002     4.113597110    -0.123127342
 C       -1.763307300     4.314819114    -0.005112482
 C       -2.597046169     3.195102518     0.119154007
 C       -2.065651938     1.908753947     0.125069581
 C       -2.368661646     5.642413511     0.001766655
 C       -1.687715791     6.796334333    -0.102072436
 C       -2.297679948     8.121942735    -0.094701822
 C       -1.470227248     9.246537528    -0.210804984
 C       -2.008640970    10.531055190    -0.208452106
 C       -3.390078592    10.721159711    -0.081731584
 C       -4.218578072     9.599132124     0.032584049
 C       -3.677340947     8.314663749     0.020444858
Si       -4.119883801    12.408961842    -0.076470079
 C       -5.671904366    12.494362600     0.887306915
 C       -5.947980364    11.720727979     1.945635925
 C       -7.193139679    11.794797728     2.712612897
 C       -7.366149187    10.928923413     3.804269840
 C       -8.524464188    10.958783917     4.561650551
 C       -9.543526677    11.888084894     4.263904593
 C       -9.376246752    12.751270204     3.169829033
 C       -8.221417632    12.684615236     2.397235730
 N      -10.706307867    11.876119110     5.068982216
 C      -10.469394569    12.003406476     6.525980060
 C      -11.843337414    12.680143159     4.591941571
 C       -9.297276955    12.907852456     6.940248892
 C       -9.453370693    14.356279641     6.443716980
 N       -8.199789764    15.127829507     6.507990134
 C       -7.644460526    15.353969781     7.779210359
 C       -8.482104947    15.460661015     8.910600077
 C       -7.940792701    15.683513791    10.166213704
 C       -6.560967111    15.860088937    10.341680343
 C       -5.736253194    15.787300314     9.215816172
 C       -6.259681713    15.546913773     7.952489329
 C       -7.263019432    14.787789855     5.422692143
 C       -6.044492507    16.092296028    11.690980490
 C       -4.749053170    16.274352243    11.981516558
Si       -4.109227314    16.564101956    13.669177097
 C       -5.153632392    15.745702307    14.943649435
 C       -5.759939054    14.515861535    14.653931359
 C       -6.554076051    13.879304473    15.603540746
 C       -6.751851185    14.446701394    16.869550079
 C       -6.138915228    15.668842344    17.158652191
 C       -5.346547110    16.311513546    16.207722672
 C       -7.592931770    13.740951568    17.830528990
 C       -7.867147849    14.175133443    19.072373038
 C       -8.708452312    13.468401458    20.032497447
 C       -9.320648606    12.246516758    19.742040865
 C      -10.117515574    11.604659230    20.689954719
 C      -10.314040134    12.169546843    21.953954296
 C       -9.700522876    13.394942440    22.248110904
 C       -8.910580391    14.035921713    21.297878231
Si      -11.362640487    11.335440324    23.216299021
 C      -11.743123321     9.573164291    22.737121657
 C      -10.439594208    11.379881809    24.880489235
 C      -13.001729405    12.284306394    23.406506896
 C       -2.348214142    15.852162483    13.774897247
 C       -4.029208715    18.438780864    13.983983470
 C       -2.884343768    13.651793201     0.665241497
 C       -4.500135508    12.916474903    -1.869572233
 C       -0.592215101    -0.933515801    -1.550414155
 C       -0.666055185    -0.894476079     1.542021879
 H        1.233933443     2.730621432    -0.224370484
 H        0.284385899     4.965932160    -0.218191919
 H       -3.672938887     3.329995737     0.213744874
 H       -2.764574028     1.074052033     0.231060867
 H       -3.458420099     5.646563871     0.100393410
 H       -0.598449664     6.793218646    -0.200965632
 H       -0.393639487     9.118409453    -0.304964027
 H       -1.313906823    11.369663812    -0.305934123
 H       -5.306295786     9.687470270     0.127746583
 H       -4.343314304     7.457748368     0.105611049
 H       -6.382417640    13.259355434     0.538300471
 H       -5.252920948    10.956639767     2.321891253
 H       -6.580824450    10.214167863     4.055181301
 H       -8.659266767    10.260051006     5.384252015
 H      -10.142558599    13.474696910     2.909882059
 H       -8.120121866    13.353671083     1.541589627
 H      -12.739359873    12.412849241     5.180108386
 H      -12.065013989    12.415001320     3.542447098
 H      -11.694065517    13.768875475     4.658864798
 H       -7.816935474    14.546090339     4.497622427
 H       -6.613825106    13.927232190     5.654602788
 H       -6.632762151    15.667922874     5.201912530
 H       -9.558377251    15.362222197     8.807417322
 H       -8.605012521    15.737219411    11.029949992
 H       -4.659033061    15.922852020     9.323397860
 H       -5.583421950    15.500656532     7.104868695
 H       -6.831169452    16.095737044    12.459233417
 H       -3.981837235    16.276755330    11.192884232
 H       -5.637333686    14.024018141    13.682739059
 H       -7.022962602    12.928405954    15.357963234
 H       -6.275719133    16.130969005    18.134410020
 H       -4.893292009    17.264872317    16.492546245
 H       -8.006561230    12.795368296    17.467738668
 H       -7.453163284    15.120455322    19.435218592
 H       -9.179882950    11.783240853    18.767202150
 H      -10.570987023    10.651659852    20.403998343
 H       -9.818020018    13.883688319    23.219462002
 H       -8.443793825    14.987789831    21.544086633
 H      -11.404202143    12.346578264     7.020064200
 H      -10.282348415    10.968879292     6.904773021
 H       -9.195270420    12.898173421     8.043355718
 H       -8.343012379    12.487793394     6.561979510
 H       -9.802694632    14.371889355     5.385496506
 H      -10.235936201    14.890579328     7.026435297
 H        2.262757552    -1.030482579     0.027255701
 H        2.264136094     0.531675125     0.882925970
 H        2.272729792     0.489970385    -0.901907197
 H      -12.337131524     9.067551050    23.519268848
 H      -10.813981386     8.991118988    22.598170520
 H      -12.318438591     9.520083090    21.796362506
 H      -10.287670465    12.472331130    25.121183125
 C      -11.231849881    10.748171598    26.038899375
 C       -9.051866804    10.718200224    24.802073645
 H      -13.616915703    11.685906895    24.139066212
 C      -12.831965446    13.704483939    23.974908871
 C      -13.787202007    12.373185065    22.085067181
 H       -1.745466310    16.391853337    12.988711871
 C       -1.679978201    16.093434253    15.139678873
 C       -2.307930500    14.346502899    13.457285858
 H       -3.588466623    18.565724826    15.014629888
 C       -3.123078516    19.182232493    12.986174127
 C       -5.422813288    19.092311746    13.973812617
 H       -1.975569870    13.628426439    -0.002658265
 C       -3.418568223    15.094996607     0.689838562
 C       -2.445164780    13.257551561     2.086813577
 H       -4.927282117    13.959174050    -1.816415742
 C       -3.248975608    12.957020341    -2.763925619
 C       -5.552090582    12.001319208    -2.521462895
 H       -0.061366585    -1.929139317    -1.522911988
 C       -2.106663039    -1.205147300    -1.580035253
 C       -0.195589186    -0.216929105    -2.854390574
 H       -1.790507144    -0.887167877     1.440575301
 C       -0.211313566    -2.361096786     1.645863547
 C       -0.307306359    -0.163987638     2.848772946
 H      -12.210471662    11.217332141    26.203402364
 H      -10.674567195    10.862056014    26.980236098
 H      -11.395381542     9.670251801    25.908372611
 H       -8.405455347    11.156158896    24.027929317
 H       -9.101360918     9.636796488    24.618261455
 H       -8.518803621    10.845937081    25.755060601
 H      -12.342768031    13.726355700    24.956901820
 H      -13.817368120    14.172987751    24.113459619
 H      -12.270185020    14.368121832    23.302490789
 H      -14.024201816    11.393300708    21.651180185
 H      -13.264324884    12.959762912    21.315908663
 H      -14.750686385    12.875662063    22.252734002
 H       -1.585035564    17.156055953    15.396866889
 H       -0.658507848    15.686299925    15.135637391
 H       -2.204341009    15.594379681    15.967223624
 H       -2.717783467    14.098026418    12.468758262
 H       -2.843156915    13.738715816    14.200996222
 H       -1.268773207    13.988278402    13.459283631
 H       -2.085112175    18.826325195    12.990658654
 H       -3.081518722    20.250972127    13.241425641
 H       -3.492254817    19.128599945    11.952270852
 H       -6.118525406    18.651966283    14.701321833
 H       -5.907107092    19.047935514    12.987198243
 H       -5.342423603    20.157933556    14.230147245
 H       -3.682874054    15.478938272    -0.303680721
 H       -2.648156945    15.773371723     1.084446600
 H       -4.295663402    15.215216825     1.341177832
 H       -1.994219623    12.256817762     2.142396803
 H       -3.270296072    13.288561737     2.813183582
 H       -1.682971321    13.958729512     2.454840831
 H       -2.486073892    13.664570602    -2.415026223
 H       -3.522874250    13.278020120    -3.779555350
 H       -2.769118112    11.973755225    -2.873969478
 H       -6.501756201    11.964901146    -1.970567159
 H       -5.200678497    10.966555724    -2.644849256
 H       -5.794670101    12.364557865    -3.530293170
 H       -2.468566335    -1.762252520    -0.706782661
 H       -2.360026519    -1.816082421    -2.458931604
 H       -2.702636619    -0.285994557    -1.666417252
 H        0.885888169    -0.058283189    -2.954531392
 H       -0.686459409     0.760050013    -2.971108229
 H       -0.499088055    -0.819243386    -3.722647361
 H       -0.494463330    -2.967114056     0.775576768
 H       -0.680977046    -2.838521864     2.518252510
 H        0.872766319    -2.464365214     1.786821675
 H       -0.653701532     0.879227427     2.871606152
 H        0.770809544    -0.159413321     3.056635332
 H       -0.785103064    -0.664155589     3.703296758

