187   

Si        0.000000000     0.000000000     0.000000000
 C        1.865828579     0.000000000     0.000000000
 C       -0.680119768     1.710078454     0.000000000
 C        0.157449590     2.824223878    -0.110545612
 C       -0.373525318     4.114126259    -0.108994956
 C       -1.751697422     4.319640186    -0.006364186
 C       -2.589896312     3.201749849     0.103588152
 C       -2.062504921     1.913645233     0.110568429
 C       -2.351825938     5.649563845    -0.000595964
 C       -1.663769372     6.800412429    -0.091165834
 C       -2.264736982     8.130058148    -0.085322479
 C       -1.426450317     9.248662709    -0.186770986
 C       -1.954877582    10.536318534    -0.185351478
 C       -3.338909660    10.738098212    -0.097469540
 C       -4.176427525     9.622541979     0.001442370
 C       -3.643416640     8.333757990     0.012347502
Si       -4.023408950    12.446468556    -0.096703213
 C       -5.853226214    12.375157867    -0.066234968
 C       -6.693365740    13.024270109     0.750426150
 C       -8.151221632    12.886775331     0.679725145
 C       -8.960817052    13.601330706     1.571515464
 C      -10.344319254    13.493732156     1.531358849
 C      -10.970261347    12.619784149     0.623604748
 C      -10.156075507    11.894583598    -0.271471053
 C       -8.777982313    12.046994974    -0.248110845
 N      -12.366617456    12.476173477     0.545333830
 C      -13.227862091    13.196981505     1.489972409
 C      -12.865430675    11.135960319     0.192544415
 C      -13.306554867    12.568512151     2.892318300
 C      -14.308757213    13.298730266     3.806430888
 N      -14.039710109    14.735141499     4.056392982
 C      -12.662789170    15.049886367     4.175769901
 C      -11.921529084    14.361623729     5.158305347
 C      -10.572968193    14.626123814     5.322075735
 C       -9.927234735    15.592776432     4.535637384
 C      -10.672329523    16.292036209     3.584375257
 C      -12.029986494    16.041907519     3.412331382
 C      -14.841140929    15.630968147     3.205933444
 C       -8.499786445    15.830697712     4.752283589
 C       -7.778388190    16.724813241     4.064997096
Si       -5.996617662    17.054442939     4.301801815
 C       -5.186296158    16.995626879     2.649860117
 C       -5.895225502    16.536070328     1.533098549
 C       -5.286492460    16.489885975     0.282091423
 C       -3.960463273    16.909137379     0.116612552
 C       -3.253864183    17.365165382     1.233232499
 C       -3.857453284    17.402330400     2.489426345
 C       -3.371390443    16.839911561    -1.214785557
 C       -2.113651655    17.195004362    -1.525893761
 C       -1.550476533    17.114769791    -2.869497327
 C       -2.285876056    16.653440966    -3.964745650
 C       -1.712262220    16.591453302    -5.233912393
 C       -0.386319635    16.988651980    -5.434579430
 C        0.354681596    17.447083282    -4.337153771
 C       -0.220378094    17.505419651    -3.070514252
Si        0.378887408    16.910047215    -7.106992498
 C       -0.914887760    16.801236852    -8.445913379
 C        1.458721741    18.456474086    -7.360037319
 C        1.493341946    15.369302320    -7.196667923
 C       -5.750197276    18.771298619     5.072510959
 C       -5.218770253    15.737816413     5.431958496
 C       -3.369866447    13.400591080     1.415180987
 C       -3.575110201    13.375190999    -1.701016435
 C       -0.589715949    -0.935003817    -1.550539467
 C       -0.667183124    -0.892967529     1.542522875
 H        1.243000069     2.726914683    -0.197996002
 H        0.300629229     4.964663325    -0.191791891
 H       -3.666228305     3.339661916     0.186864880
 H       -2.765198148     1.081087282     0.206529395
 H       -3.442191688     5.658850994     0.085821080
 H       -0.573256910     6.791688520    -0.177542182
 H       -0.349766955     9.111995313    -0.263654757
 H       -1.251451501    11.371806400    -0.253244733
 H       -5.263559799     9.718206157     0.082658804
 H       -4.316380898     7.482742168     0.096580828
 H       -6.247430136    11.702700284    -0.849036440
 H       -6.354082321    13.705418692     1.541837633
 H       -8.505338341    14.262117793     2.314107256
 H      -10.934886702    14.075741148     2.235187201
 H      -10.603849956    11.226799674    -1.000144233
 H       -8.177231548    11.485739540    -0.965761071
 H      -13.953674188    11.069065776     0.348990270
 H      -12.381392105    10.331811595     0.771059380
 H      -12.682700085    10.956599352    -0.883184825
 H      -15.910312604    15.396153020     3.350152479
 H      -14.612039646    15.569461708     2.131097823
 H      -14.699023208    16.674331680     3.541279903
 H      -12.416121190    13.624946859     5.786711344
 H      -10.008556346    14.077502863     6.076643506
 H      -10.193023272    17.050757708     2.963195172
 H      -12.579442751    16.606761822     2.665450404
 H       -8.072774147    15.199240936     5.542795139
 H       -8.243525556    17.356825251     3.289853194
 H       -6.934799636    16.196216490     1.599522530
 H       -5.851173236    16.120316958    -0.573700130
 H       -2.222261845    17.694601808     1.129267271
 H       -3.256597046    17.766138955     3.326858394
 H       -4.053690612    16.482440985    -1.995104357
 H       -1.429390202    17.566939856    -0.759231662
 H       -3.320077108    16.337401790    -3.835599694
 H       -2.338343288    16.225741896    -6.052588564
 H        1.394994363    17.769586335    -4.434540356
 H        0.371494931    17.862894413    -2.230183048
 H      -12.867901142    14.250941327     1.557463608
 H      -14.245579007    13.251020614     1.037723821
 H      -13.596283711    11.503965975     2.816735764
 H      -12.297539959    12.560974866     3.353003899
 H      -15.338340057    13.186533235     3.403977900
 H      -14.314056976    12.802014643     4.806865273
 H        2.263547847    -1.030281122     0.021821266
 H        2.264125934     0.527312475     0.885667863
 H        2.272593135     0.495019417    -0.899343346
 H       -0.451580037    16.810566143    -9.448751835
 H       -1.610770677    17.658374607    -8.394020434
 H       -1.512884658    15.876679382    -8.365066271
 H        2.244921195    18.422039516    -6.550651368
 C        2.182959719    18.483008268    -8.717844391
 C        0.664408786    19.764107588    -7.189574581
 H        1.886941639    15.335952387    -8.253317697
 C        2.697740300    15.428643464    -6.239979946
 C        0.718054997    14.065326028    -6.933319192
 H       -4.635772691    18.896324818     5.201320877
 C       -6.250629939    19.905264251     4.159841200
 C       -6.408413264    18.912490903     6.456078879
 H       -5.773299102    15.805080771     6.412328263
 C       -5.391725172    14.313111388     4.876065663
 C       -3.724985548    15.977035915     5.715068654
 H       -4.125229645    14.220906688     1.609365785
 C       -3.297001119    12.500909719     2.662850220
 C       -2.003793924    14.079577556     1.220282407
 H       -3.765412538    14.460533218    -1.454037089
 C       -2.108754508    13.240044403    -2.142627114
 C       -4.473350723    12.995095092    -2.892963317
 H       -0.053624544    -1.927872897    -1.524314021
 C       -2.102742008    -1.214910823    -1.578949603
 C       -0.198274320    -0.215402236    -2.854441257
 H       -1.791827200    -0.876794368     1.443959199
 C       -0.222627322    -2.362935991     1.642831409
 C       -0.299805431    -0.167045237     2.849450128
 H        2.826218211    17.609351081    -8.884864998
 H        2.839706187    19.363306664    -8.775531196
 H        1.493894943    18.558707320    -9.569443174
 H        0.159261975    19.841816749    -6.216204982
 H       -0.095965295    19.908935439    -7.968524396
 H        1.341446474    20.627868546    -7.254031050
 H        3.360184194    16.283444056    -6.425950900
 H        3.318184243    14.528669352    -6.361442843
 H        2.401563878    15.454858357    -5.181728214
 H       -0.114110723    13.903857074    -7.630567009
 H        0.313987843    14.007036126    -5.912250549
 H        1.386445482    13.199902844    -7.048819483
 H       -5.788427522    19.897890711     3.162548346
 H       -6.005387223    20.881221607     4.602857658
 H       -7.340397110    19.895182542     4.021689573
 H       -6.037572200    18.187034953     7.191557648
 H       -7.503402733    18.821010506     6.420857005
 H       -6.197091354    19.907575320     6.873657029
 H       -6.440371803    14.010161827     4.753152155
 H       -4.939110688    13.581537387     5.559791746
 H       -4.896879143    14.173141116     3.902552745
 H       -3.513600697    16.956365970     6.162061910
 H       -3.099264318    15.872778952     4.817255955
 H       -3.354967174    15.229398885     6.432072325
 H       -4.260897766    12.045793460     2.929898053
 H       -2.973860793    13.088101434     3.534417927
 H       -2.567805986    11.684476155     2.558821110
 H       -2.004363530    14.815249367     0.402602909
 H       -1.188126037    13.368537237     1.041676209
 H       -1.733633019    14.639484491     2.127442368
 H       -1.384693549    13.513581496    -1.365086625
 H       -1.908664305    13.918161834    -2.987127299
 H       -1.862569651    12.228269290    -2.491458784
 H       -5.538086169    13.195903143    -2.715274488
 H       -4.373790283    11.941056747    -3.184444034
 H       -4.191548406    13.584460624    -3.777287685
 H       -2.459661091    -1.777530486    -0.707181878
 H       -2.354327080    -1.823421653    -2.459906650
 H       -2.703907302    -0.298683441    -1.660259769
 H        0.882375230    -0.051933829    -2.955732706
 H       -0.693328325     0.759844159    -2.968759273
 H       -0.500600948    -0.817719306    -3.722942938
 H       -0.512431155    -2.965378896     0.772279282
 H       -0.693092481    -2.838432920     2.515731626
 H        0.861114065    -2.473811745     1.780403148
 H       -0.637750409     0.879012002     2.873946067
 H        0.778759646    -0.171354688     3.054781697
 H       -0.779883636    -0.664154419     3.704366865

