187   

Si        0.000000000     0.000000000     0.000000000
 C        1.865183364     0.000000000     0.000000000
 C       -0.673052015     1.713744002     0.000000000
 C        0.101950224     2.785921603     0.454530448
 C       -0.410960762     4.082720517     0.453158953
 C       -1.709991665     4.336777255     0.005307992
 C       -2.487307054     3.260928121    -0.443525080
 C       -1.977920467     1.965190342    -0.444080361
 C       -2.287889871     5.676438388    -0.014046658
 C       -1.650784889     6.789580843     0.387108853
 C       -2.229356978     8.128597569     0.367408051
 C       -1.452221482     9.204586762     0.815407897
 C       -1.962269624    10.500611173     0.814991919
 C       -3.263940336    10.749630600     0.365984515
 C       -4.041029325     9.677397071    -0.087771891
 C       -3.525133751     8.382283081    -0.091794096
Si       -3.977866290    12.444260345     0.347908458
 C       -5.692876400    12.344515922     0.968817291
 C       -6.777786593    12.864288850     0.381030958
 C       -8.132321400    12.753877382     0.924647141
 C       -9.195236013    13.338511819     0.221932192
 C      -10.495075434    13.261754613     0.694480794
 C      -10.775407397    12.600669760     1.909738428
 C       -9.713845182    11.990097330     2.599254828
 C       -8.422280141    12.040399081     2.090370766
 N      -12.108910682    12.537734293     2.367216199
 C      -12.913668107    13.764927058     2.182606589
 C      -12.321655995    11.893847708     3.674347855
 C      -12.245012460    15.075167716     2.641305350
 C      -12.461423047    15.384202578     4.136056795
 N      -11.266201306    15.907388332     4.839128699
 C      -10.272981269    14.895647153     5.031831681
 C      -10.541772329    13.945451139     6.033140202
 C       -9.632432820    12.931001502     6.285439548
 C       -8.434481112    12.841474027     5.560104168
 C       -8.164698280    13.804039810     4.584122820
 C       -9.063677837    14.836234422     4.330453966
 C      -10.767222017    17.165696750     4.257543015
 C       -7.515313122    11.745713257     5.874803784
 C       -6.340546305    11.537144160     5.265956351
Si       -5.224810051    10.149075230     5.697134490
 C       -6.176729686     8.696388600     6.303304137
 C       -7.442176048     8.429712705     5.765933738
 C       -8.182956894     7.335740693     6.208195060
 C       -7.672125882     6.475074056     7.184284892
 C       -6.402177504     6.738331999     7.713465745
 C       -5.661216507     7.834807712     7.277693645
 C       -8.412613722     5.318191258     7.676615598
 C       -9.635683797     4.956926274     7.252953504
 C      -10.377761909     3.800593672     7.743919258
 C       -9.873445292     2.941239127     8.723438883
 C      -10.617511873     1.846770832     9.163867600
 C      -11.888027768     1.592400242     8.638177189
 C      -12.396604836     2.453292662     7.656081657
 C      -11.648797696     3.540918923     7.213713840
Si      -12.882781140     0.152463250     9.208573390
 C      -12.173994115    -0.599319187    10.761730515
 C      -14.665740361     0.743413622     9.517893798
 C      -12.914200652    -1.176144289     7.845826959
 C       -4.346711184     9.613605207     4.094721940
 C       -3.942597149    10.732670981     6.967073648
 C       -3.004784852    13.618019477     1.487640620
 C       -3.904226343    13.130869394    -1.422593130
 C       -0.650434216    -0.916209726    -1.536918426
 C       -0.628956276    -0.909109230     1.549180748
 H        1.124583526     2.649528562     0.816938570
 H        0.214287946     4.900117452     0.807757229
 H       -3.502548162     3.436502848    -0.794808831
 H       -2.631803594     1.166059765    -0.804220045
 H       -3.314854907     5.726303763    -0.388518912
 H       -0.624752751     6.739317043     0.762566552
 H       -0.438550652     9.028920134     1.169934590
 H       -1.308995181    11.300292134     1.174125171
 H       -5.066391063     9.815372431    -0.448424144
 H       -4.145870084     7.564511124    -0.453850064
 H       -5.771812506    11.793585660     1.923039701
 H       -6.734560734    13.420960508    -0.563419047
 H       -9.000315012    13.865916123    -0.711851125
 H      -11.302064403    13.705146170     0.118623256
 H       -9.882935081    11.472331598     3.540494663
 H       -7.623280006    11.532339904     2.637005780
 H      -13.398676143    11.866910055     3.906068233
 H      -11.794617269    12.392741367     4.506482595
 H      -11.979903591    10.843846543     3.617934256
 H      -11.565401405    17.924568212     4.330756931
 H      -10.450939314    17.095859753     3.205727135
 H       -9.914151851    17.527042999     4.858832054
 H      -11.459510278    14.025488307     6.612604192
 H       -9.849145450    12.199707219     7.064697757
 H       -7.237788282    13.758515394     4.009369763
 H       -8.829677340    15.571327340     3.565449611
 H       -7.892832169    11.089160004     6.672790643
 H       -5.971573722    12.211910242     4.478889999
 H       -7.890052598     9.063159486     4.991733154
 H       -9.166905534     7.152875772     5.780346990
 H       -5.985466481     6.079441769     8.472773912
 H       -4.676164137     7.989050297     7.726148094
 H       -7.893976289     4.734803208     8.443048933
 H      -10.152982660     5.539467477     6.485063971
 H       -8.888877909     3.119733460     9.152008563
 H      -10.169045824     1.209043943     9.930666686
 H      -13.383646750     2.304302839     7.209350941
 H      -12.059394292     4.196459320     6.448186260
 H      -13.149556433    13.832173546     1.093101836
 H      -13.893507738    13.631219082     2.690043657
 H      -11.157239062    15.029793665     2.421876701
 H      -12.624379302    15.912623815     2.028415024
 H      -13.270520912    16.137527827     4.260529210
 H      -12.802818185    14.474372720     4.677607408
 H        2.263181727    -1.029064518    -0.053736082
 H        2.276753118     0.468259467     0.911028267
 H        2.259229258     0.554659618    -0.871114956
 H      -12.802960067    -1.432213426    11.123569105
 H      -12.115648714     0.148901397    11.573043244
 H      -11.157681456    -0.997832794    10.596562007
 H      -15.036367354     1.138932613     8.527638813
 C      -15.617492947    -0.381774692     9.961381544
 C      -14.736726664     1.892694820    10.539695059
 H      -13.485818267    -2.045836680     8.281860920
 C      -13.635888251    -0.727870653     6.562400237
 C      -11.505004199    -1.670917104     7.471498156
 H       -3.920697383    10.554327721     3.639684530
 C       -3.185498787     8.631295718     4.319148660
 C       -5.331549059     8.994432963     3.087677076
 H       -3.262866754     9.851000729     7.153104589
 C       -3.075441064    11.899960054     6.461225139
 C       -4.585022434    11.131547737     8.307812595
 H       -1.949332946    13.631172637     1.089982859
 C       -3.543893520    15.059904988     1.454760013
 C       -2.959338479    13.143166021     2.950880601
 H       -4.438602668    14.124374372    -1.393480684
 C       -2.466573360    13.377478122    -1.914092579
 C       -4.626111016    12.229785999    -2.440930099
 H       -1.775367872    -0.921362624    -1.442567477
 C       -0.290703897    -0.196232897    -2.849197163
 C       -0.180518659    -2.379376524    -1.623252861
 H       -0.161525959    -1.935277586     1.514931323
 C       -0.186767658    -0.226256583     2.856362661
 C       -2.158369256    -1.081106419     1.574725057
 H      -15.676870456    -1.209365679     9.242762724
 H      -16.639996445     0.010140809    10.063380731
 H      -15.353173553    -0.806046749    10.939060461
 H      -14.121580782     2.760081528    10.260201971
 H      -14.437215739     1.587147331    11.550962153
 H      -15.768974697     2.261911213    10.620979370
 H      -14.681071527    -0.437922122     6.728445329
 H      -13.659084036    -1.554219798     5.836996505
 H      -13.129360204     0.106831116     6.057498506
 H      -10.948793105    -2.088118428     8.320756351
 H      -10.882510435    -0.884946378     7.019861238
 H      -11.573926046    -2.475106479     6.725004318
 H       -2.392099998     9.029357646     4.962492188
 H       -2.708541041     8.395035777     3.353632765
 H       -3.510165897     7.669406584     4.738590209
 H       -6.160381404     9.659711163     2.812885931
 H       -5.763867316     8.046206842     3.436754302
 H       -4.803384114     8.757570786     2.150055890
 H       -2.524839498    11.665396082     5.540453164
 H       -2.317478086    12.158549237     7.214256965
 H       -3.655169293    12.816451215     6.283416236
 H       -5.175751050    10.326672944     8.766458025
 H       -5.237978581    12.012338402     8.223609694
 H       -3.806199815    11.394522216     9.037278923
 H       -3.517789852    15.512519915     0.455482662
 H       -2.929729055    15.706694878     2.097386974
 H       -4.574463167    15.140785685     1.830269864
 H       -2.556291350    12.127592886     3.068696776
 H       -3.944844268    13.172976395     3.437762594
 H       -2.305720204    13.801830053     3.540401004
 H       -1.912753565    14.098244104    -1.299161293
 H       -2.483069894    13.792981271    -2.932243477
 H       -1.869012303    12.456497621    -1.970648086
 H       -5.677576692    12.035985506    -2.188754069
 H       -4.132310578    11.256022171    -2.572371142
 H       -4.629474556    12.707274437    -3.430988538
 H       -0.641884128     0.845003232    -2.883886303
 H       -0.760820535    -0.707470293    -3.701274258
 H        0.788547861    -0.187406507    -3.051697292
 H       -0.468633290    -2.980631186    -0.751254692
 H        0.905945256    -2.474005603    -1.750833582
 H       -0.635495216    -2.868419536    -2.496921982
 H        0.902623078    -0.139193056     2.956428245
 H       -0.528564619    -0.812500274     3.721520291
 H       -0.614876181     0.779214479     2.978775842
 H       -2.546890195    -1.651462390     0.721606613
 H       -2.695767141    -0.122626350     1.612175162
 H       -2.459299809    -1.635244042     2.475797676

