187   

Si        0.000000000     0.000000000     0.000000000
 C        1.864935737     0.000000000     0.000000000
 C       -0.674874592     1.712916064     0.000000000
 C        0.107683246     2.792557411    -0.421749146
 C       -0.410062848     4.087661607    -0.419135443
 C       -1.717691269     4.331865579     0.007074369
 C       -2.502307496     3.248783181     0.425522292
 C       -1.990682026     1.954491317     0.417387176
 C       -2.302624436     5.667507899     0.027706630
 C       -1.669039644     6.790408748    -0.350880833
 C       -2.269344579     8.119758199    -0.323967894
 C       -1.505348020     9.215327104    -0.744649179
 C       -2.039923826    10.501999676    -0.734945343
 C       -3.359493770    10.715134733    -0.323714512
 C       -4.127850374     9.621030350     0.092999897
 C       -3.584685425     8.338526100     0.097581575
Si       -4.118024823    12.391186590    -0.290383806
 C       -5.884677956    12.173403128    -0.698486788
 C       -6.922718778    12.668397003    -0.013544439
 C       -8.321100141    12.459987049    -0.390051792
 C       -9.323438899    13.029118047     0.406655556
 C      -10.663437006    12.864571850     0.098063673
 C      -11.051121696    12.058758254    -0.994535424
 C      -10.044473812    11.475181713    -1.787442656
 C       -8.705111403    11.692736770    -1.494031999
 N      -12.416522282    11.904003891    -1.291892291
 C      -13.356127182    11.924312541    -0.154900146
 C      -12.763656015    10.928964625    -2.336974052
 C      -13.009743663    10.959362660     0.993661503
 C      -13.580133227     9.544886779     0.777500856
 N      -12.679390541     8.457422103     1.212053844
 C      -11.593447235     8.207165009     0.327677918
 C      -11.915672904     7.783578096    -0.976236902
 C      -10.909043991     7.521510941    -1.890684561
 C       -9.558033493     7.606716374    -1.520671176
 C       -9.243940628     8.001631964    -0.218367958
 C      -10.245651763     8.305967486     0.698937342
 C      -12.336075284     8.538353146     2.641597412
 C       -8.542808283     7.317114008    -2.535408407
 C       -7.220448649     7.358885844    -2.325418656
Si       -5.990463991     6.987233139    -3.630808737
 C       -6.642144082     5.774698301    -4.851035884
 C       -7.490469177     4.747253472    -4.421069169
 C       -7.995309252     3.818203089    -5.328727045
 C       -7.654896591     3.885489333    -6.682979523
 C       -6.799686205     4.909322129    -7.110081086
 C       -6.297456265     5.842444704    -6.205814508
 C       -8.159298526     2.934924303    -7.668339730
 C       -8.983631557     1.910460633    -7.390824458
 C       -9.488345173     0.959616737    -8.375692599
 C       -9.153401159     1.027830111    -9.730492368
 C       -9.659053041     0.097363572   -10.638165088
 C      -10.518032740    -0.919652852   -10.210267084
 C      -10.856330150    -0.989946891    -8.851974990
 C      -10.345352340    -0.063259632    -7.947532445
Si      -11.194240669    -2.155582631   -11.394800928
 C      -10.910676064    -1.637676318   -13.164354316
 C      -10.350544522    -3.837773317   -11.108163331
 C      -13.057768550    -2.347979901   -11.056596144
 C       -5.480003414     8.609688478    -4.472873754
 C       -4.466093100     6.208146116    -2.802053581
 C       -3.880378669    13.145742027     1.437382745
 C       -3.308224987    13.535786582    -1.573404218
 C       -0.628829581    -0.903985784    -1.552423977
 C       -0.653789474    -0.916824951     1.534835317
 H        1.139060893     2.663429238    -0.761307206
 H        0.218937965     4.911128161    -0.751971952
 H       -3.524345511     3.417867461     0.760323341
 H       -2.650860258     1.148362021     0.749773078
 H       -3.335467394     5.707723914     0.390136669
 H       -0.637667772     6.756913466    -0.711118915
 H       -0.481099086     9.064339276    -1.078896310
 H       -1.395539988    11.321360056    -1.063311109
 H       -5.167609312     9.732554615     0.421692821
 H       -4.197923801     7.503594827     0.433603625
 H       -6.045082739    11.577567648    -1.614348557
 H       -6.802782779    13.274383512     0.893417696
 H       -9.048847657    13.629142851     1.274497108
 H      -11.413541490    13.359803951     0.706808547
 H      -10.298301048    10.840044438    -2.630971336
 H       -7.945734111    11.233122508    -2.130553871
 H      -13.855990813    10.889388892    -2.473744910
 H      -12.397883789     9.908801691    -2.125356492
 H      -12.332437242    11.265854635    -3.298427725
 H      -13.269741617     8.563591539     3.229634644
 H      -11.728822226     9.414716671     2.917067955
 H      -11.791157862     7.623076738     2.934458643
 H      -12.958621372     7.652810922    -1.255957650
 H      -11.173201643     7.217474734    -2.904208324
 H       -8.200558666     8.090227230     0.088403015
 H       -9.968561730     8.639203589     1.694548291
 H       -8.978705695     7.047022187    -3.508384951
 H       -6.800244778     7.641301686    -1.348823939
 H       -7.787572627     4.641717389    -3.372014046
 H       -8.658550231     3.032986242    -4.970818045
 H       -6.521642233     4.979096855    -8.159789074
 H       -5.634786397     6.618859144    -6.597449917
 H       -7.813719964     3.109776640    -8.691444701
 H       -9.328353946     1.735296878    -6.367482796
 H       -8.489860219     1.812199391   -10.090081907
 H       -9.360281676     0.201647117   -11.684870453
 H      -11.523850783    -1.762534019    -8.460082783
 H      -10.618205201    -0.135176429    -6.896394108
 H      -13.379909949    12.972268654     0.230871402
 H      -14.383179521    11.727763489    -0.532916173
 H      -11.906356582    10.902556671     1.110470709
 H      -13.378188311    11.372863208     1.949225232
 H      -14.535235746     9.424522082     1.336839853
 H      -13.832411974     9.385323571    -0.293930618
 H        2.262746378    -1.029016332     0.057506312
 H        2.259860703     0.557786890     0.868651420
 H        2.276058860     0.464307697    -0.913307072
 H      -11.354738475    -2.364497841   -13.867717966
 H       -9.835010653    -1.560726830   -13.401040501
 H      -11.372457573    -0.654527839   -13.368143307
 H      -10.765884527    -4.525234268   -11.900623544
 C       -8.822888338    -3.769482554   -11.288230458
 C      -10.657219002    -4.456812886    -9.732779623
 H      -13.142851536    -2.703289296    -9.988476070
 C      -13.818019875    -1.014235397   -11.170499864
 C      -13.740669345    -3.393106930   -11.956475277
 H       -4.728943890     8.329630567    -5.266400005
 C       -6.663566078     9.316840600    -5.158061638
 C       -4.804738593     9.592064192    -3.502379079
 H       -4.162509525     6.913980217    -1.973427909
 C       -4.789461481     4.839037963    -2.177770918
 C       -3.264581637     6.052571533    -3.749181022
 H       -4.462002613    14.112836193     1.437262282
 C       -4.442049245    12.248805537     2.555974196
 C       -2.410981104    13.473131268     1.758100835
 H       -2.223772740    13.620900438    -1.273224314
 C       -3.362343423    12.968768301    -3.003240706
 C       -3.913656525    14.950991176    -1.576024343
 H       -0.161279402    -1.930122697    -1.521564378
 C       -2.158227684    -1.075331949    -1.580202152
 C       -0.186422396    -0.216030277    -2.856877018
 H       -1.778305386    -0.925576694     1.435881993
 C       -0.179646372    -2.378406845     1.624000458
 C       -0.301665244    -0.194500699     2.847910352
 H       -8.515728102    -3.415301440   -12.280649135
 H       -8.384601184    -4.770906693   -11.170445454
 H       -8.332926314    -3.129454430   -10.540212305
 H      -11.728390140    -4.613821775    -9.553972042
 H      -10.258822300    -3.861435634    -8.899062563
 H      -10.185390152    -5.447131248    -9.653591733
 H      -13.418691977    -0.229721420   -10.511666313
 H      -14.869095357    -1.153169430   -10.879947010
 H      -13.830324291    -0.613031788   -12.192541116
 H      -13.297737684    -4.394034054   -11.873802201
 H      -13.737050933    -3.112327437   -13.018016726
 H      -14.797385534    -3.500508759   -11.671249970
 H       -7.164584750     8.696004631    -5.912606065
 H       -6.312539280    10.215811186    -5.683797877
 H       -7.430668110     9.653386123    -4.445440482
 H       -3.895429955     9.191449727    -3.031347087
 H       -5.474760041     9.917551048    -2.693856385
 H       -4.495168064    10.500520495    -4.037817653
 H       -5.575930925     4.882607177    -1.413719061
 H       -3.893267010     4.430533709    -1.684527281
 H       -5.087034289     4.087291113    -2.922780037
 H       -2.914647530     7.004293856    -4.168160609
 H       -3.460314612     5.365690302    -4.583448287
 H       -2.410258428     5.630340334    -3.197364421
 H       -5.504101251    11.998966631     2.427434687
 H       -4.359768465    12.759370848     3.525734185
 H       -3.891334393    11.302730334     2.659307909
 H       -1.962749747    14.193380859     1.061824179
 H       -1.768146701    12.581815054     1.779012860
 H       -2.336221723    13.926589383     2.757256412
 H       -2.906873181    11.972826942    -3.094508960
 H       -2.807598663    13.624098316    -3.689704737
 H       -4.386439959    12.907126508    -3.398014798
 H       -3.829376893    15.463412001    -0.609137108
 H       -4.974071131    14.962027222    -1.867371631
 H       -3.388410339    15.584241592    -2.305196623
 H       -2.548642746    -1.646412801    -0.728590643
 H       -2.457512892    -1.628834484    -2.482429077
 H       -2.695244331    -0.116560112    -1.618806417
 H        0.902686344    -0.124721391    -2.955107705
 H       -0.618389664     0.788095423    -2.977781255
 H       -0.524405130    -0.801442190    -3.724238439
 H       -0.456344659    -2.979616592     0.748264495
 H       -0.642034075    -2.870340371     2.492175881
 H        0.905814014    -2.469118063     1.762728266
 H       -0.658609663     0.844757760     2.881231114
 H        0.776917640    -0.179873857     3.053713997
 H       -0.771665235    -0.708146080     3.698674283

