187   

Si        0.000000000     0.000000000     0.000000000
 C        1.864996676     0.000000000     0.000000000
 C       -0.667873734     1.715995168     0.000000000
 C        0.062659526     2.749382770    -0.597321896
 C       -0.429884251     4.053436573    -0.605232007
 C       -1.664180536     4.356477024    -0.022860839
 C       -2.397307798     3.319860572     0.568643231
 C       -1.908142702     2.015720071     0.576865148
 C       -2.213152074     5.709228436    -0.011224034
 C       -1.600988228     6.778468323    -0.547757505
 C       -2.128305534     8.138612627    -0.548919091
 C       -1.364406109     9.147544283    -1.152362506
 C       -1.818313940    10.462399756    -1.182622576
 C       -3.045606829    10.804164841    -0.597998245
 C       -3.806795605     9.801030596     0.009060315
 C       -3.351535295     8.481969974     0.032069103
Si       -3.618119603    12.551686389    -0.654643663
 C       -5.341079726    12.700851475    -0.065632597
 C       -5.784336919    13.569047923     0.853577416
 C       -7.175970431    13.655112534     1.297482600
 C       -7.524671618    14.605354890     2.267842517
 C       -8.828265959    14.725926313     2.720624501
 C       -9.824310862    13.828492759     2.274511641
 C       -9.469928080    12.859658623     1.311526648
 C       -8.173621895    12.798603760     0.821886590
 N      -11.134040159    13.952549586     2.731760133
 C      -11.414865364    14.423459779     4.095562403
 C      -12.145694216    13.050525559     2.165653767
 C      -10.464904842    13.981472013     5.226359031
 C      -10.192088312    12.472917655     5.331732174
 N      -11.333858003    11.613534633     5.692506605
 C      -11.901455909    10.853914173     4.653221883
 C      -11.027788623    10.085632101     3.850823187
 C      -11.527118389     9.319154826     2.814766680
 C      -12.907721617     9.256318263     2.562519567
 C      -13.771294089     9.989441032     3.377270314
 C      -13.284328602    10.770326786     4.421519351
 C      -12.247690825    12.180516267     6.690152422
 C      -13.364144058     8.425162484     1.449657292
 C      -14.641713128     8.260258231     1.080616202
Si      -15.102450834     7.191491555    -0.334634364
 C      -13.862224792     5.838985639    -0.484647276
 C      -13.396893374     5.234623933     0.690656350
 C      -12.458983882     4.207257606     0.634990590
 C      -11.965496154     3.755984442    -0.593318919
 C      -12.435880818     4.357652894    -1.766885276
 C      -13.376613383     5.385433095    -1.715051545
 C      -10.982035409     2.681336090    -0.686790880
 C      -10.466786714     2.038384843     0.374939374
 C       -9.484292681     0.962582457     0.312275308
 C       -8.965102016     0.478256955    -0.890531070
 C       -8.026115110    -0.553774926    -0.896662088
 C       -7.583667279    -1.119899231     0.302709664
 C       -8.104189963    -0.635941150     1.510950042
 C       -9.044354449     0.389683542     1.513690030
Si       -6.346186593    -2.481830071     0.322146232
 C       -5.484405255    -2.641091061    -1.324278373
 C       -5.078483550    -2.091716013     1.690327565
 C       -7.197612251    -4.130125525     0.739619551
 C      -16.824986516     6.449489950    -0.032976018
 C      -15.151446926     8.240810728    -1.919330696
 C       -2.464247606    13.635958704     0.401896188
 C       -3.541843862    13.149613880    -2.460576283
 C       -0.622454808    -0.886237098    -1.567172118
 C       -0.661724087    -0.948277754     1.510984517
 H        1.034286288     2.576673964    -1.068324279
 H        0.160719554     4.838695768    -1.073712388
 H       -3.362793827     3.531943457     1.025180619
 H       -2.527203420     1.248761768     1.051450155
 H       -3.187313054     5.807766245     0.475425742
 H       -0.626191887     6.670845323    -1.034272029
 H       -0.407060195     8.901419625    -1.607462419
 H       -1.183598618    11.203637332    -1.676808052
 H       -4.769756939    10.012778133     0.484209955
 H       -3.962020482     7.717717438     0.509361050
 H       -6.032320482    11.997336467    -0.558907292
 H       -5.126360973    14.289650912     1.356684995
 H       -6.763777482    15.283739206     2.654824695
 H       -9.086263926    15.524860561     3.408118443
 H      -10.203114351    12.149413705     0.942148668
 H       -7.931414906    12.051817892     0.063445513
 H      -13.143582678    13.278725223     2.573408612
 H      -11.938255990    11.982447267     2.358925816
 H      -12.199408863    13.208507950     1.071960544
 H      -11.659038880    12.587691679     7.531054379
 H      -12.879358171    11.371776377     7.102594810
 H      -12.903981547    12.975040677     6.301661221
 H       -9.958786989    10.092876336     4.055359526
 H      -10.837815282     8.742768468     2.194710267
 H      -14.846894076     9.950107989     3.202784700
 H      -13.982774056    11.327122139     5.036421014
 H      -12.532305929     7.922396660     0.930060019
 H      -15.467176284     8.766948057     1.596199349
 H      -13.744760824     5.545895749     1.682230150
 H      -12.111844882     3.756558009     1.563330953
 H      -12.066025275     4.020523203    -2.733177250
 H      -13.710488235     5.814396562    -2.663238675
 H      -10.677343557     2.419495312    -1.703160242
 H      -10.778263937     2.307629020     1.389636906
 H       -9.291079585     0.905379997    -1.837109943
 H       -7.654370947    -0.890613460    -1.868359000
 H       -7.796098697    -1.040996489     2.479121882
 H       -9.439138585     0.751011228     2.461529724
 H      -11.410408052    15.542357067     4.053328113
 H      -12.454369773    14.127835008     4.368408129
 H       -9.482431813    14.486558606     5.108551233
 H      -10.868877397    14.364264418     6.183718479
 H       -9.740157555    12.127051420     4.371140156
 H       -9.415406025    12.303188600     6.118407318
 H        2.263790259    -1.028775908     0.049444753
 H        2.259422772     0.551816719     0.872875643
 H        2.276817707     0.472908370    -0.908310996
 H       -4.710802409    -3.429066292    -1.296738121
 H       -4.987015123    -1.693516631    -1.604280075
 H       -6.192191943    -2.900006908    -2.131030341
 H       -5.640498895    -2.185070006     2.664754018
 C       -3.896740905    -3.075564292     1.735162301
 C       -4.537681367    -0.653700387     1.595146245
 H       -6.382665842    -4.910231244     0.716433529
 C       -7.840942685    -4.155997248     2.137736478
 C       -8.263863024    -4.522482159    -0.299570270
 H      -17.528620497     7.326532529     0.062163737
 C      -17.313204732     5.567919800    -1.195808463
 C      -16.896346338     5.637701884     1.273008232
 H      -15.405173885     7.529018050    -2.757298743
 C      -16.229441829     9.339229828    -1.887576820
 C      -13.791085837     8.889320423    -2.234161164
 H       -2.942256782    14.658401086     0.421684786
 C       -2.355205533    13.127616284     1.851436099
 C       -1.045471490    13.790463289    -0.173532407
 H       -2.459651138    13.066665427    -2.768628201
 C       -4.373269458    12.266730068    -3.408199111
 C       -3.976338183    14.615895624    -2.628767886
 H       -0.153579461    -1.911817629    -1.547084823
 C       -2.151042037    -1.058888619    -1.601648790
 C       -0.176473447    -0.181963969    -2.861476803
 H       -1.786956420    -0.958809778     1.401745418
 C       -0.187107358    -2.411251475     1.572698326
 C       -0.324415937    -0.256254833     2.843615312
 H       -4.204887421    -4.120660948     1.864443335
 H       -3.244635444    -2.840247830     2.589647513
 H       -3.259882992    -3.024216339     0.841187993
 H       -5.327144678     0.109258648     1.662226399
 H       -3.981252937    -0.465532596     0.665863986
 H       -3.847302609    -0.454556495     2.427771552
 H       -7.127249474    -3.971747984     2.950482850
 H       -8.275716008    -5.147477749     2.332140206
 H       -8.664922532    -3.435812190     2.241658910
 H       -7.869349086    -4.606074634    -1.320365225
 H       -9.111762495    -3.822904578    -0.326290684
 H       -8.686203040    -5.507212236    -0.052639167
 H      -17.373553176     6.101501651    -2.152986568
 H      -18.327211582     5.197147839    -0.986875721
 H      -16.687716057     4.676697208    -1.349108487
 H      -16.607445628     6.214235818     2.162246547
 H      -16.273610022     4.731735186     1.246637658
 H      -17.926403520     5.296085571     1.448251409
 H      -17.245719531     8.949045804    -1.748518044
 H      -16.239048184     9.882909785    -2.843482359
 H      -16.049107113    10.092722632    -1.108389220
 H      -12.971159743     8.163930201    -2.327988495
 H      -13.488528274     9.632402153    -1.481618100
 H      -13.840412212     9.423237197    -3.193526548
 H       -3.325547250    13.031350012     2.357806199
 H       -1.759602836    13.827539666     2.453818881
 H       -1.851671955    12.152679395     1.923567653
 H       -1.028389944    14.205904362    -1.188976891
 H       -0.484154370    12.845988363    -0.184829167
 H       -0.461930710    14.483244761     0.450329683
 H       -4.089018661    11.205407243    -3.375625667
 H       -4.227935170    12.590451928    -4.448625664
 H       -5.452837755    12.328243226    -3.214090736
 H       -3.369570480    15.319638760    -2.044619657
 H       -5.029554154    14.782951097    -2.360330043
 H       -3.874899187    14.920606559    -3.680082828
 H       -2.537455565    -1.661618977    -0.768468886
 H       -2.450304945    -1.581229961    -2.521806034
 H       -2.690745278    -0.100730374    -1.603831801
 H        0.912830286    -0.088614156    -2.955132624
 H       -0.608185769     0.823610307    -2.970340719
 H       -0.510535538    -0.756132925    -3.737470328
 H       -0.456823059    -2.994056750     0.682502894
 H       -0.654634233    -2.921514946     2.427366006
 H        0.897455299    -2.504064574     1.716906356
 H       -0.673773251     0.784864914     2.894709214
 H        0.751532470    -0.252741923     3.063727387
 H       -0.808399173    -0.785074871     3.676792551

