187   

Si        0.000000000     0.000000000     0.000000000
 C        1.865290381     0.000000000     0.000000000
 C       -0.671342297     1.714342518     0.000000000
 C        0.122330591     2.795660330     0.396367596
 C       -0.392250050     4.091917345     0.394100339
 C       -1.711470977     4.336437422     0.003613144
 C       -2.507115070     3.251396833    -0.387669470
 C       -1.995890470     1.956434228    -0.388037764
 C       -2.291561778     5.675258574    -0.014243869
 C       -1.637688169     6.796360817     0.334524796
 C       -2.216359335     8.135691505     0.317184536
 C       -1.418279133     9.219024730     0.707258675
 C       -1.926707119    10.515679117     0.707004737
 C       -3.243593245    10.761345072     0.300776585
 C       -4.042198070     9.680650886    -0.091391945
 C       -3.534412431     8.382575630    -0.077448076
Si       -3.942580181    12.462814883     0.289851659
 C       -5.146906683    12.695739992    -1.066172016
 C       -5.093049352    12.049175504    -2.238572723
 C       -6.055627387    12.233855321    -3.325284262
 C       -5.892046789    11.497156609    -4.507714546
 C       -6.774375735    11.634296218    -5.566131962
 C       -7.836451604    12.562843787    -5.495964176
 C       -8.000673997    13.303518720    -4.310224207
 C       -7.133564701    13.118248294    -3.240389222
 N       -8.721796475    12.688627263    -6.578818930
 C       -8.175542162    12.492738934    -7.933625919
 C       -9.751516997    13.733654550    -6.487929863
 C       -6.956938222    13.361760394    -8.287739323
 C       -7.303093798    14.817131878    -8.644754957
 N       -7.813654133    15.029035269   -10.010587665
 C       -7.027223999    14.571920876   -11.079892538
 C       -5.619282470    14.574452501   -10.966795770
 C       -4.830783168    14.126426345   -12.013497428
 C       -5.400141350    13.708657829   -13.225233532
 C       -6.791603750    13.736614727   -13.346566137
 C       -7.599166729    14.165170808   -12.300589968
 C       -9.271190663    14.888318311   -10.139041400
 C       -4.519431457    13.244563669   -14.297922495
 C       -4.948386655    12.822689165   -15.495188070
Si       -3.849789981    12.242577033   -16.836448390
 C       -2.203243534    13.061275050   -16.787121048
 C       -2.093163124    14.379412051   -16.324895896
 C       -0.853112796    15.011034894   -16.282281930
 C        0.304098288    14.348641103   -16.712813733
 C        0.189716645    13.037164937   -17.181980514
 C       -1.049973983    12.399907926   -17.221303327
 C        1.580865155    15.052319489   -16.648893414
 C        2.761110496    14.531167250   -17.024735491
 C        4.038234024    15.234118089   -16.961140364
 C        4.155098786    16.545180530   -16.492510877
 C        5.396845499    17.179079640   -16.449082185
 C        6.549615535    16.515745171   -16.880900293
 C        6.434890014    15.200805467   -17.352229193
 C        5.195153151    14.568810853   -17.388885854
Si        8.195726795    17.338436271   -16.829979519
 C        8.035982021    19.176240043   -16.553412664
 C        9.231780245    16.593690379   -15.417442756
 C        9.086272692    16.996321355   -18.477271911
 C       -3.648460647    10.356122060   -16.691171709
 C       -4.677365340    12.641515832   -18.502449105
 C       -4.835101922    12.766280578     1.942309892
 C       -2.551150911    13.746865039     0.102774103
 C       -0.652998272    -0.910019228    -1.539430334
 C       -0.624761599    -0.914887647     1.547463565
 H        1.161430647     2.667338829     0.712023255
 H        0.247803676     4.916515008     0.702718347
 H       -3.537550363     3.419649909    -0.695153592
 H       -2.664101014     1.150183264    -0.703154741
 H       -3.334542309     5.717887989    -0.341530752
 H       -0.594821262     6.753031394     0.662097444
 H       -0.389398513     9.048463402     1.017920377
 H       -1.259208021    11.319359860     1.029324221
 H       -5.079741884     9.813947586    -0.416910795
 H       -4.176722320     7.558435955    -0.382474280
 H       -5.933399397    13.436386016    -0.857783075
 H       -4.311997285    11.311805232    -2.474312119
 H       -5.063149062    10.792409907    -4.593022064
 H       -6.643568552    11.019597958    -6.452400142
 H       -8.806547108    14.022260284    -4.209509852
 H       -7.294407125    13.691961963    -2.326415397
 H      -10.383860179    13.722159497    -7.391016849
 H       -9.343502111    14.749405119    -6.357474760
 H      -10.416321496    13.508288367    -5.632311394
 H       -9.771812952    15.277127901    -9.237020865
 H       -9.602824202    13.850166106   -10.305006919
 H       -9.618107055    15.509093110   -10.987060590
 H       -5.144107887    14.925550987   -10.055018718
 H       -3.745939772    14.114042720   -11.895433978
 H       -7.261464228    13.418240495   -14.278371046
 H       -8.674673276    14.168645007   -12.439973946
 H       -3.453998203    13.281643668   -14.028372112
 H       -6.021403084    12.787396520   -15.736701284
 H       -2.964453686    14.947905098   -15.981714361
 H       -0.785873037    16.032591949   -15.912602781
 H        1.072718875    12.500132824   -17.522962605
 H       -1.075721122    11.374009315   -17.598478172
 H        1.521552238    16.073395177   -16.260655893
 H        2.820211947    13.510172589   -17.412981966
 H        3.272340902    17.085106012   -16.154788840
 H        5.425244218    18.204878272   -16.071265162
 H        7.301253408    14.633199533   -17.703484381
 H        5.126436738    13.546809435   -17.756630517
 H       -7.899846482    11.413520856    -8.025012024
 H       -8.989874602    12.648869723    -8.674309847
 H       -6.237869862    13.359843831    -7.442284342
 H       -6.411031284    12.889390672    -9.130662904
 H       -8.038966807    15.229118444    -7.920070036
 H       -6.392245424    15.454331906    -8.529273393
 H        2.263376305    -1.029717821    -0.039068037
 H        2.276744103     0.481024378     0.904442872
 H        2.259306622     0.542031642    -0.879065313
 H        9.025569015    19.667204286   -16.560471583
 H        7.558344701    19.405230259   -15.584753053
 H        7.427823314    19.644406629   -17.348707944
 H       10.200482788    17.172435775   -15.412594050
 C        8.564740134    16.767658322   -14.040717461
 C        9.567880328    15.105053150   -15.617725639
 H        9.191971902    15.874356632   -18.544123481
 C        8.271544438    17.465672022   -19.696154424
 C       10.496896439    17.607349659   -18.551321788
 H       -3.017962688    10.039264299   -17.571427327
 C       -2.914043022     9.945390372   -15.402340824
 C       -4.984869365     9.596395326   -16.767931783
 H       -5.673119812    12.111575157   -18.491082978
 C       -4.939621074    14.148324254   -18.675968656
 C       -3.877103595    12.130439242   -19.713023428
 H       -5.231310125    13.821374666     1.893726673
 C       -6.029400391    11.816048300     2.142486043
 C       -3.902312386    12.660928182     3.161348479
 H       -1.866263496    13.598174608     0.986868500
 C       -1.730093571    13.534636022    -1.181810557
 C       -3.058561121    15.199691818     0.135554056
 H       -1.777589370    -0.917134658    -1.441378533
 C       -0.299006418    -0.182345484    -2.849046009
 C       -0.180457432    -2.371686363    -1.634800201
 H       -0.152567878    -1.938862870     1.509899391
 C       -0.183811282    -0.233483932     2.855852982
 C       -2.153244315    -1.094674139     1.575402333
 H        8.366013948    17.815394124   -13.781089112
 H        9.221867687    16.375131316   -13.251410254
 H        7.616735531    16.217530701   -13.953088084
 H       10.129584023    14.905323783   -16.538954420
 H        8.676040372    14.462597621   -15.619305779
 H       10.199242227    14.748324119   -14.790783540
 H        7.264395826    17.026833952   -19.740085312
 H        8.777053911    17.166943967   -20.625528302
 H        8.158747330    18.556922316   -19.742712594
 H       11.163523864    17.260709332   -17.751131308
 H       10.489904172    18.705157596   -18.529017973
 H       10.979462266    17.322864520   -19.497764645
 H       -1.919391596    10.401727827   -15.301756719
 H       -2.757007784     8.857794778   -15.386913695
 H       -3.481430981    10.188252217   -14.492118957
 H       -5.536052588     9.776649192   -17.699534088
 H       -5.656777008     9.828449716   -15.929760421
 H       -4.803515555     8.512728239   -16.724250782
 H       -5.559001029    14.578443755   -17.877033762
 H       -5.478189862    14.331606582   -19.616445751
 H       -4.013882787    14.739150211   -18.732558755
 H       -3.728991051    11.043091912   -19.710205177
 H       -2.888321730    12.602988509   -19.802855285
 H       -4.413021761    12.364409381   -20.644293391
 H       -6.773157201    11.873762677     1.336056348
 H       -6.560868930    12.068551043     3.070906262
 H       -5.725970119    10.763531690     2.239356876
 H       -3.070960273    13.376890782     3.137634069
 H       -3.474938228    11.655712540     3.287506556
 H       -4.463030335    12.872376768     4.083380644
 H       -1.282062993    12.533856029    -1.254225868
 H       -0.895954354    14.249207683    -1.219622770
 H       -2.318577118    13.698546567    -2.096274305
 H       -3.594196793    15.454216276     1.058870903
 H       -3.715682791    15.441361622    -0.711551754
 H       -2.209193013    15.895260035     0.072700780
 H       -0.653148468     0.858142654    -2.877011174
 H       -0.770735930    -0.690285740    -3.702215888
 H        0.779519025    -0.169656599    -3.054983673
 H       -0.460885904    -2.977316461    -0.763388009
 H        0.905391786    -2.462843469    -1.770273825
 H       -0.640272419    -2.858195173    -2.507357806
 H        0.905312723    -0.139435221     2.953434698
 H       -0.519435662    -0.824837407     3.719890581
 H       -0.617815060     0.768846010     2.982432419
 H       -2.541152679    -1.660081053     0.718706929
 H       -2.694802040    -0.139136017     1.622089938
 H       -2.448859773    -1.657675705     2.472703285

