187   

Si        0.000000000     0.000000000     0.000000000
 C        1.865294843     0.000000000     0.000000000
 C       -0.672751151     1.713761140     0.000000000
 C        0.090839446     2.779964946     0.486917827
 C       -0.420405052     4.077404240     0.486125364
 C       -1.706214635     4.338573992     0.005252657
 C       -2.472157754     3.268607527    -0.476144811
 C       -1.964787518     1.972055865    -0.476245361
 C       -2.282122204     5.679085732    -0.014946971
 C       -1.656445878     6.787537856     0.416141675
 C       -2.232932467     8.127864289     0.395677182
 C       -1.466656479     9.197809388     0.877760845
 C       -1.974332424    10.494167236     0.878246077
 C       -3.265210052    10.750627538     0.398388419
 C       -4.031441715     9.685021312    -0.084637918
 C       -3.517762841     8.388448183    -0.088089088
Si       -3.937232333    12.463477372     0.398529234
 C       -5.746881026    12.423092711     0.149202382
 C       -6.431897613    13.146520735    -0.746006058
 C       -7.884435384    13.084321514    -0.913843144
 C       -8.489799353    13.892137003    -1.887633436
 C       -9.859876245    13.871405537    -2.087068944
 C      -10.677103799    12.989982428    -1.343813914
 C      -10.069453487    12.175729892    -0.368022438
 C       -8.699900214    12.245219216    -0.149638784
 N      -12.060953988    12.983172414    -1.559272951
 C      -12.546854534    13.211384165    -2.929563421
 C      -12.869184615    12.042480046    -0.773354982
 C      -11.908421034    12.329137718    -4.018527538
 C      -12.435279079    10.883850010    -4.062236008
 N      -13.846152043    10.711644046    -4.462567796
 C      -14.786650459    10.809091762    -3.405857373
 C      -14.698226652     9.852022824    -2.374487344
 C      -15.585996454     9.889645125    -1.312174624
 C      -16.604370604    10.853809985    -1.256208183
 C      -16.705431823    11.780717075    -2.296177990
 C      -15.820148714    11.756557934    -3.368686689
 C      -14.197447774    11.411609608    -5.707203964
 C      -17.516398475    10.848885950    -0.109862235
 C      -18.522203816    11.718088843     0.050266543
Si      -19.689588386    11.759698952     1.457092951
 C      -21.416460130    11.826094878     0.829898880
 C      -21.711574747    11.410510872    -0.472672111
 C      -23.020476145    11.459835036    -0.950864495
 C      -24.062012586    11.913665404    -0.136993865
 C      -23.763891673    12.323258333     1.169666902
 C      -22.457532411    12.279862552     1.649472423
 C      -25.445731367    11.982311745    -0.594976408
 C      -25.864983290    11.621601833    -1.819690731
 C      -27.248627159    11.690138659    -2.277949632
 C      -28.290047443    12.147904291    -1.466688496
 C      -29.599024296    12.196665838    -1.945979751
 C      -29.895682297    11.782307622    -3.248137384
 C      -28.852934151    11.322225158    -4.063786329
 C      -27.546787146    11.279450982    -3.584252176
Si      -31.617884381    11.840259725    -3.896136584
 C      -32.855475792    12.136144893    -2.532220103
 C      -31.769725118    13.244176328    -5.172615296
 C      -31.981506256    10.187590488    -4.767558988
 C      -19.487810705    10.229020833     2.566696224
 C      -19.322622810    13.315973693     2.488668275
 C       -3.573903590    13.273951962     2.081718762
 C       -3.082454013    13.475315836    -0.966393929
 C       -0.648066357    -0.918280729    -1.536749207
 C       -0.628586213    -0.909889016     1.548766696
 H        1.103406106     2.638168668     0.874771220
 H        0.195747912     4.890075278     0.866661430
 H       -3.476506023     3.449755086    -0.854217430
 H       -2.609997807     1.178048261    -0.862276149
 H       -3.297330665     5.734557280    -0.418979896
 H       -0.641377916     6.732073812     0.820049273
 H       -0.462993242     9.016061900     1.256984247
 H       -1.331598801    11.288855875     1.267082123
 H       -5.044179366     9.828653223    -0.475257367
 H       -4.131892497     7.575982753    -0.471889000
 H       -6.264928582    11.732719823     0.835645641
 H       -5.947949431    13.849556249    -1.436833765
 H       -7.874991058    14.561448108    -2.490312235
 H      -10.304650652    14.540385421    -2.817540205
 H      -10.661050295    11.486932686     0.226001927
 H       -8.256456414    11.615647427     0.623733128
 H      -13.943309591    12.191352578    -0.991918701
 H      -12.732052504    12.254845599     0.302891933
 H      -12.629134790    10.983980477    -0.964743007
 H      -13.475697246    11.126519392    -6.492666657
 H      -14.210041657    12.509687934    -5.626691666
 H      -15.193656561    11.071017050    -6.042848284
 H      -13.935629365     9.077166495    -2.426278284
 H      -15.501331425     9.146870381    -0.518310345
 H      -17.492174719    12.536753114    -2.277944812
 H      -15.929984526    12.487483642    -4.164254750
 H      -17.298044861    10.051888942     0.612788918
 H      -18.710886086    12.512304115    -0.692095040
 H      -20.938238525    11.039832238    -1.153455690
 H      -23.225014621    11.136667912    -1.970029936
 H      -24.560875351    12.679794694     1.819361127
 H      -22.284328532    12.613557357     2.676255983
 H      -26.155077321    12.360513119     0.147051865
 H      -25.155874146    11.242676131    -2.561703957
 H      -28.086442513    12.472797259    -0.447925099
 H      -30.371266259    12.564321507    -1.264555270
 H      -29.025300916    10.984658116    -5.089739586
 H      -26.750274909    10.919978816    -4.233056076
 H      -13.654484151    13.091807690    -2.941315393
 H      -12.360680635    14.286090123    -3.170376233
 H      -12.050044644    12.813237337    -5.002804834
 H      -10.807954117    12.293448819    -3.870597723
 H      -11.828113497    10.297947003    -4.794225485
 H      -12.274233608    10.399603562    -3.073294692
 H        2.263375341    -1.029160928    -0.050329370
 H        2.277281727     0.471606417     0.909074898
 H        2.258964557     0.551896301    -0.873094949
 H      -33.888357577    12.130009235    -2.923985641
 H      -32.693807845    13.109416504    -2.036576161
 H      -32.789351087    11.348434134    -1.759801284
 H      -32.856338910    13.262459766    -5.476355374
 C      -31.416741880    14.620699749    -4.579628267
 C      -30.925020289    13.022488898    -6.439934809
 H      -31.223650692    10.104194039    -5.600163529
 C      -31.792571241     8.976248523    -3.836547481
 C      -33.383632663    10.121405823    -5.398537882
 H      -18.393798625    10.185577421     2.840076726
 C      -20.300461533    10.309863883     3.871329765
 C      -19.854159658     8.923696350     1.837182333
 H      -20.032491620    13.282930976     3.365150136
 C      -17.886005372    13.346662709     3.038980767
 C      -19.590438958    14.615910398     1.709615435
 H       -2.450048096    13.298677913     2.178614251
 C       -4.093644014    14.718854597     2.178690496
 C       -4.133550290    12.457894096     3.260610228
 H       -3.610026675    14.472957763    -0.986402051
 C       -1.589190595    13.734775194    -0.698412709
 C       -3.228335637    12.825981912    -2.354948308
 H       -1.772992799    -0.925259964    -1.443004522
 C       -0.288277728    -0.199050335    -2.849418410
 C       -0.175885631    -2.380860622    -1.621711401
 H       -0.159566558    -1.935374552     1.514865447
 C       -0.188355199    -0.226473222     2.856335848
 C       -2.157798203    -1.084179984     1.573150167
 H      -32.036893708    14.896410525    -3.717017134
 H      -31.572034891    15.406315535    -5.332965641
 H      -30.364285705    14.695380877    -4.270126124
 H      -31.169301709    12.093420543    -6.970247285
 H      -29.844695023    13.022385310    -6.237569524
 H      -31.101401693    13.838684201    -7.155775516
 H      -30.790338808     8.926341835    -3.387157920
 H      -31.921874160     8.042330022    -4.401896331
 H      -32.523908690     8.945737846    -3.018052867
 H      -33.567561273    10.915383222    -6.133844605
 H      -34.190623728    10.160641747    -4.654919249
 H      -33.508290493     9.170201268    -5.936339669
 H      -20.025276138    11.162943250     4.504471784
 H      -20.125543962     9.409570720     4.478528396
 H      -21.385124342    10.353978200     3.698542640
 H      -19.290868532     8.764684785     0.907636351
 H      -20.923267140     8.862690434     1.586100835
 H      -19.639820098     8.058505105     2.480270783
 H      -17.645656208    12.487233793     3.677964214
 H      -17.740529406    14.241634804     3.661041592
 H      -17.124871554    13.396184617     2.246936655
 H      -20.615344997    14.686277945     1.318539202
 H      -18.902155372    14.759666853     0.865561036
 H      -19.454122061    15.484955095     2.369248236
 H       -3.670214708    15.386118267     1.417037413
 H       -3.823041571    15.152048189     3.152155848
 H       -5.188924387    14.785034629     2.106569970
 H       -3.771188210    11.420426740     3.282929929
 H       -5.231653259    12.426989563     3.276845327
 H       -3.823720237    12.911120920     4.212994419
 H       -1.401631611    14.277744798     0.236599980
 H       -1.166260675    14.354809503    -1.502308711
 H       -0.991593039    12.812654053    -0.679279743
 H       -4.271266571    12.642975000    -2.647705921
 H       -2.693875834    11.868260175    -2.434820935
 H       -2.801088111    13.482228649    -3.125915600
 H       -0.640639506     0.841769223    -2.885403308
 H       -0.756848906    -0.711750266    -3.701434770
 H        0.791198611    -0.188894090    -3.050930701
 H       -0.461621940    -2.981555431    -0.748571546
 H        0.910604170    -2.473686400    -1.750718988
 H       -0.631266052    -2.871787729    -2.494111720
 H        0.900897908    -0.136735930     2.956457412
 H       -0.528610424    -0.813997857     3.721176275
 H       -0.618853906     0.777872614     2.978973554
 H       -2.544741357    -1.654673534     0.719347828
 H       -2.696443675    -0.126520052     1.610109303
 H       -2.458481515    -1.639297765     2.473614307

