187   

Si        0.000000000     0.000000000     0.000000000
 C        1.865389231     0.000000000     0.000000000
 C       -0.676787775     1.711856890     0.000000000
 C        0.141538124     2.811394041     0.277630434
 C       -0.381909715     4.104175691     0.274895693
 C       -1.734036367     4.327126420     0.002149886
 C       -2.553561016     3.224027196    -0.272351098
 C       -2.033395605     1.932729782    -0.273731218
 C       -2.324642041     5.661381180    -0.011540078
 C       -1.650487687     6.798359830     0.230853186
 C       -2.239273454     8.133399589     0.217622831
 C       -3.591833286     8.357907365    -0.055083704
 C       -4.112701993     9.651078273    -0.057228752
 C       -3.286410831    10.749632206     0.203009890
 C       -1.930725601    10.528927738     0.475585793
 C       -1.416308067     9.234833712     0.486646230
Si       -3.964401876    12.459513044     0.202388180
 C       -2.611201206    13.659525827    -0.059508935
 C       -2.369555190    14.746850987     0.684285211
 C       -1.270636567    15.681858801     0.435825138
 C       -1.115448619    16.788229899     1.283026890
 C       -0.091687784    17.701598872     1.089871551
 C        0.792126250    17.565903655    -0.002263951
 C        0.635565320    16.456345161    -0.853692311
 C       -0.366177842    15.523426040    -0.617515340
 N        1.828870465    18.502456868    -0.186253272
 C        1.538807240    19.894917191     0.204393906
 C        2.581943256    18.417930247    -1.449815950
 C        0.381796542    20.514264746    -0.595174407
 C        0.085814113    21.940790282    -0.105780400
 N       -1.007640960    22.591338067    -0.853520041
 C       -0.802456404    22.750329419    -2.240596594
 C        0.479665028    23.098883151    -2.716344288
 C        0.705064220    23.260437349    -4.073672399
 C       -0.337510184    23.131543645    -5.002443969
 C       -1.612928173    22.816941409    -4.526516338
 C       -1.851726073    22.634665305    -3.169946918
 C       -2.336373026    22.113174071    -0.433022435
 C       -0.045424028    23.312108717    -6.425845337
 C       -0.962074138    23.212044729    -7.397001646
Si       -0.658996173    23.426221268    -9.186511944
 C       -1.374232721    22.003211752   -10.106781631
 C       -1.614464184    20.790268527    -9.452394203
 C       -2.156440531    19.708308760   -10.144934756
 C       -2.458526071    19.810115271   -11.505715653
 C       -2.210302019    21.024097299   -12.160143873
 C       -1.673591899    22.108393034   -11.470706948
 C       -3.026386508    18.704484069   -12.270054965
 C       -3.311624327    17.492152215   -11.765177302
 C       -3.879471188    16.386380567   -12.529272571
 C       -4.186375450    16.488211937   -13.888545040
 C       -4.728357916    15.405194268   -14.580481323
 C       -4.968603999    14.192117571   -13.927679265
 C       -4.660473329    14.086985590   -12.564451156
 C       -4.125224528    15.171526332   -11.875165671
Si       -5.683326091    12.753424202   -14.826405599
 C       -5.645787710    13.010560141   -16.673674840
 C       -4.685828441    11.201144112   -14.358250625
 C       -7.489201703    12.498641372   -14.281260630
 C       -1.498178832    25.036992713    -9.753711221
 C        1.200829612    23.540188342    -9.565094973
 C       -5.217620153    12.644664417    -1.217775565
 C       -4.859520709    12.773490490     1.850319181
 C       -0.656824677    -0.901483621    -1.542619231
 C       -0.613083944    -0.924285737     1.546898853
 H        1.206581767     2.700053053     0.499316044
 H        0.277487609     4.943045521     0.490492921
 H       -3.609577932     3.375439065    -0.487609489
 H       -2.720890021     1.111998110    -0.496846605
 H       -3.394027992     5.686193267    -0.239997785
 H       -0.580891514     6.772873472     0.459777856
 H       -4.252392167     7.519407634    -0.266826654
 H       -5.178538554     9.764442844    -0.273105888
 H       -1.240461157    11.352021839     0.688477064
 H       -0.361025530     9.081007799     0.704534107
 H       -1.978907681    13.415582472    -0.929911461
 H       -2.983553861    15.022634311     1.551427452
 H       -1.802931596    16.929020593     2.117605621
 H        0.022185454    18.526437490     1.787220306
 H        1.296303840    16.308719827    -1.702172861
 H       -0.453092334    14.663234438    -1.283798562
 H        3.361889500    19.197553690    -1.474360796
 H        1.951710283    18.530803356    -2.347357893
 H        3.103300289    17.444656881    -1.496248698
 H       -2.379045306    22.052794795     0.667640802
 H       -2.602884260    21.125730657    -0.844321782
 H       -3.100365161    22.849557645    -0.741250936
 H        1.300659068    23.240103045    -2.019109862
 H        1.708914650    23.507196593    -4.420433855
 H       -2.443473042    22.710142734    -5.226647746
 H       -2.857704528    22.386896005    -2.845849253
 H        1.010155302    23.537644807    -6.625100657
 H       -2.017260046    22.992973271    -7.160709006
 H       -1.392809680    20.650626613    -8.389059071
 H       -2.340478049    18.776607267    -9.613025203
 H       -2.438468937    21.123655518   -13.219481976
 H       -1.502657423    23.030559804   -12.032619860
 H       -3.215552468    18.926688389   -13.324338598
 H       -3.122029139    17.269557897   -10.710908731
 H       -4.004680342    17.419865416   -14.421203205
 H       -4.948573579    15.545724166   -15.642323987
 H       -4.825773556    13.163369744   -12.002448386
 H       -3.893650745    15.070957902   -10.816421255
 H        1.318825314    19.915152240     1.296066507
 H        2.467299768    20.495730712     0.075462973
 H        0.624496456    20.525054589    -1.675775004
 H       -0.523757503    19.882563627    -0.506144149
 H       -0.183331483    21.935233254     0.974383746
 H        0.994404583    22.579774160    -0.185637659
 H        2.263235477    -1.029726318    -0.041434366
 H        2.275047175     0.478252314     0.906928780
 H        2.261341523     0.543938447    -0.876841080
 H       -6.033651317    12.124180449   -17.206724636
 H       -4.613869824    13.185423933   -17.028595865
 H       -6.258886028    13.876463829   -16.979040066
 H       -4.797172866    11.087253322   -13.240631016
 C       -5.209860684     9.912897135   -15.017257862
 C       -3.185349630    11.349164956   -14.668801862
 H       -7.879293004    11.646529392   -14.909748914
 C       -7.638063765    12.104861611   -12.800803928
 C       -8.367537759    13.733585317   -14.553623022
 H       -1.260156889    25.141932134   -10.851688392
 C       -3.029041239    24.989073988    -9.602380200
 C       -0.960107897    26.282972810    -9.028576477
 H        1.603451429    24.358631215    -8.900513057
 C        1.948633945    22.236699276    -9.229311077
 C        1.504413424    23.920962430   -11.025202425
 H       -6.044825902    11.908594553    -1.000786120
 C       -5.838747963    14.050524769    -1.292453809
 C       -4.613329002    12.289005489    -2.587869317
 H       -5.165341632    13.859591718     1.835248368
 C       -6.131028836    11.923986789     2.025576254
 C       -3.943997469    12.548653614     3.067721777
 H       -1.781561884    -0.900440258    -1.445897142
 C       -0.296523453    -0.171858039    -2.849432940
 C       -0.194162609    -2.365964526    -1.641862753
 H       -0.119452584    -1.938357957     1.511438949
 C       -0.188413634    -0.232063761     2.855042698
 C       -2.137141023    -1.137867009     1.574708642
 H       -6.260864576     9.700628790   -14.782309649
 H       -4.634315217     9.047057318   -14.658507596
 H       -5.105862546     9.918025537   -16.110371678
 H       -2.725591882    12.221230779   -14.181883645
 H       -2.974268974    11.421332077   -15.743931122
 H       -2.636213583    10.469322774   -14.304140173
 H       -7.108165327    11.179924259   -12.540241118
 H       -8.697479690    11.927427000   -12.564579595
 H       -7.300292282    12.893356155   -12.113515270
 H       -8.384999440    14.032485014   -15.609568678
 H       -8.064763745    14.611193684   -13.964313089
 H       -9.410539801    13.522689446   -14.277120942
 H       -3.492870499    24.144160066   -10.130699461
 H       -3.478158537    25.898777617   -10.025650997
 H       -3.354506447    24.944272825    -8.553969030
 H        0.118365797    26.434443958    -9.164907307
 H       -1.159934954    26.268628538    -7.947399278
 H       -1.449348914    27.186623443    -9.419256557
 H        1.818726351    21.910334569    -8.188520477
 H        3.028958084    22.371778115    -9.378739325
 H        1.651287958    21.397621579    -9.875021963
 H        1.091502608    24.895145922   -11.316318765
 H        1.145078336    23.173414064   -11.746425151
 H        2.591388809    23.992050290   -11.176534371
 H       -6.369028258    14.341417842    -0.376609819
 H       -6.579985801    14.092159779    -2.103262991
 H       -5.099119229    14.833953715    -1.511903859
 H       -4.184752604    11.277494896    -2.625535672
 H       -3.832435255    12.992801871    -2.907153497
 H       -5.392243477    12.320808213    -3.362855062
 H       -6.885277983    12.102917487     1.248894835
 H       -6.614990884    12.165583362     2.983118636
 H       -5.924592012    10.844659164     2.052793502
 H       -3.025423543    13.150857628     3.044967493
 H       -3.643370343    11.497318943     3.185311526
 H       -4.470849636    12.823005087     3.992327533
 H       -0.646344400     0.870176309    -2.875042244
 H       -0.768865560    -0.675050802    -3.705061090
 H        0.782431775    -0.163423315    -3.053140310
 H       -0.481128037    -2.972555708    -0.773232138
 H        0.891399858    -2.464203287    -1.774687288
 H       -0.654904992    -2.846299523    -2.517335348
 H        0.898380248    -0.114807651     2.954173598
 H       -0.512845717    -0.828871592     3.719553735
 H       -0.643000841     0.761398357     2.979446045
 H       -2.514279022    -1.701580450     0.712157144
 H       -2.699020410    -0.195080307     1.634425664
 H       -2.418472211    -1.717786911     2.465869978

