187   

Si        0.000000000     0.000000000     0.000000000
 C        1.865213227     0.000000000     0.000000000
 C       -0.654939020     1.721765938     0.000000000
 C        0.071966664     2.759055212     0.595461648
 C       -0.422145197     4.063032559     0.596473349
 C       -1.643389506     4.364143351    -0.012626978
 C       -2.372266478     3.323969087    -0.603348190
 C       -1.892450608     2.016715631    -0.585467496
 C       -2.201993816     5.711474322    -0.038034711
 C       -1.619817703     6.792283066     0.508613596
 C       -2.181580964     8.138486982     0.481231368
 C       -3.403688901     8.433574588    -0.129605066
 C       -3.903608208     9.735009306    -0.132321813
 C       -3.204889681    10.769483888     0.500164129
 C       -1.985916789    10.471391088     1.122159629
 C       -1.480477365     9.173882893     1.111306848
Si       -3.867534577    12.492268748     0.496062559
 C       -2.939855873    13.436547919     1.762158263
 C       -3.507157011    14.188326675     2.714355517
 C       -2.773728340    14.945017338     3.728505810
 C       -3.506358583    15.688337418     4.662653022
 C       -2.874674940    16.427588842     5.649805630
 C       -1.466401730    16.509777517     5.689433450
 C       -0.727966363    15.778063292     4.734170826
 C       -1.377191980    15.001628462     3.785544177
 N       -0.810151837    17.250964663     6.677970161
 C       -1.593193187    18.156290315     7.530588429
 C        0.556411572    17.703069615     6.381054319
 C       -2.315114960    19.297212333     6.790882849
 C       -1.444915453    20.557144951     6.627301615
 N       -1.532732567    21.182306286     5.289901702
 C       -0.887769901    20.402669514     4.279182602
 C        0.518078635    20.424488823     4.283599855
 C        1.222940754    19.696836984     3.338548868
 C        0.552421694    18.938075087     2.366733515
 C       -0.844161634    18.927912720     2.364055876
 C       -1.563901191    19.656315500     3.307145679
 C       -2.895868072    21.628722483     4.953067857
 C        1.359624010    18.193042019     1.398278544
 C        0.865370810    17.427901761     0.416528502
Si        1.904613277    16.510665503    -0.776211530
 C        1.486829944    14.736272187    -0.990495933
 C        0.902492053    13.940365704    -0.000830676
 C        0.619135509    12.596950927    -0.253205022
 C        0.922723836    12.015880258    -1.490013876
 C        1.520014110    12.815751696    -2.470733145
 C        1.805512074    14.154165766    -2.224752975
 C        0.621807265    10.607753938    -1.744196182
 C        0.898581349    10.013063857    -2.917278653
 C        0.646300779     8.626359492    -3.283857961
 C        0.058813705     7.693581960    -2.427948534
 C       -0.151953267     6.380176745    -2.849510328
 C        0.214199077     5.975625464    -4.138239833
 C        0.805310429     6.910257316    -4.997123558
 C        1.022374837     8.216669659    -4.571417020
Si       -0.065863934     4.242308829    -4.689441697
 C       -1.665817136     3.574270429    -4.007236574
 C       -0.092988943     4.143419386    -6.589659640
 C        1.373640054     3.175007572    -4.044684102
 C        1.679858513    17.404745369    -2.446826449
 C        3.738597297    16.603184688    -0.272135321
 C       -3.648612930    13.263331974    -1.227369211
 C       -5.724360556    12.514418451     0.920180289
 C       -0.641595491    -0.908781133    -1.545824594
 C       -0.643035697    -0.907766178     1.542066851
 H        1.039431559     2.586651967     1.075395338
 H        0.160538959     4.850361764     1.072066970
 H       -3.332939192     3.534528386    -1.070939426
 H       -2.512975612     1.245486372    -1.049971181
 H       -3.164626545     5.797966275    -0.551104075
 H       -0.658713459     6.706386258     1.024782119
 H       -3.972094644     7.647047363    -0.622312616
 H       -4.855388869     9.906335832    -0.642936682
 H       -1.405760013    11.231047937     1.655258216
 H       -0.532697607     8.964344373     1.603810383
 H       -1.844459455    13.369455709     1.668548968
 H       -4.596411532    14.288455404     2.818150992
 H       -4.596373958    15.671426980     4.631716060
 H       -3.482764971    16.942395966     6.385787695
 H        0.357002436    15.813826180     4.733795081
 H       -0.781334422    14.438569318     3.065231287
 H        0.910808896    18.418158547     7.139096242
 H        0.641273038    18.183521705     5.388811096
 H        1.237319884    16.831927741     6.411549998
 H       -3.205394698    22.389000775     5.691131762
 H       -3.653717782    20.830856102     4.938602072
 H       -2.881991904    22.119036622     3.963667588
 H        1.041024309    21.029162447     5.022082737
 H        2.312378921    19.724779750     3.346739198
 H       -1.385377578    18.336092993     1.624034029
 H       -2.649908504    19.623059624     3.291228847
 H        2.438599204    18.320910862     1.563874818
 H       -0.220165510    17.312970642     0.266828361
 H        0.641852854    14.345057460     0.981173668
 H        0.159617060    11.989568486     0.525139404
 H        1.772057553    12.396394761    -3.443801594
 H        2.276829739    14.716486705    -3.036889970
 H        0.144724357    10.065285750    -0.924697173
 H        1.369948413    10.594278683    -3.720902260
 H       -0.248485001     7.989726208    -1.424713688
 H       -0.615341252     5.690381573    -2.134527287
 H        1.115515655     6.653268936    -6.013112332
 H        1.486263866     8.928022868    -5.251687424
 H       -2.341736930    17.530577374     8.076185485
 H       -0.923729685    18.565532552     8.320052672
 H       -2.636473188    18.937468332     5.789834075
 H       -3.249302697    19.550782076     7.322600092
 H       -1.735229892    21.329405736     7.373525942
 H       -0.374513527    20.325742378     6.823807869
 H        2.263413419    -1.029035681    -0.049847718
 H        2.278037192     0.472375524     0.908163663
 H        2.257932436     0.551599563    -0.874392740
 H       -1.899789947     2.582662104    -4.431504341
 H       -2.508818902     4.248040710    -4.242323761
 H       -1.616350108     3.466767968    -2.907828172
 H        0.898922327     4.553266649    -6.938818650
 C       -0.218617978     2.703646315    -7.122079395
 C       -1.207654477     5.002834945    -7.214053599
 H        1.064473453     2.103980458    -4.216857405
 C        2.700344862     3.415417040    -4.787316641
 C        1.612774890     3.370615635    -2.537766375
 H        2.398568307    16.917381254    -3.166237052
 C        0.256317554    17.241188983    -3.008821740
 C        2.025322447    18.902249904    -2.377231744
 H        3.965310375    17.695964727    -0.108107404
 C        4.019732538    15.849096960     1.040806827
 C        4.695031410    16.079508373    -1.357776416
 H       -4.370662446    12.709415210    -1.896032037
 C       -4.012397085    14.759421103    -1.255466047
 C       -2.241173029    13.087449468    -1.814732124
 H       -5.962125367    13.592745967     1.158945710
 C       -6.658111086    12.083029818    -0.224430931
 C       -6.044289425    11.666591300     2.164967209
 H       -1.766673498    -0.918171258    -1.455904980
 C       -0.277585259    -0.183730875    -2.853911770
 C       -0.166603760    -2.370052868    -1.635601416
 H       -0.190118988    -1.940415964     1.504395199
 C       -0.194275646    -0.237886450     2.853769604
 C       -2.174849193    -1.058064117     1.562379780
 H        0.580388739     2.038342054    -6.769616802
 H       -0.157417939     2.703143336    -8.219723970
 H       -1.179051722     2.236158707    -6.868080787
 H       -1.166278464     6.058577364    -6.910973664
 H       -2.214385292     4.633013938    -6.977975654
 H       -1.123415654     4.993109163    -8.309719950
 H        2.643293921     3.201849987    -5.861771741
 H        3.481136564     2.755501534    -4.382710067
 H        3.075423444     4.441678192    -4.669416494
 H        0.714711832     3.201855635    -1.924879712
 H        1.990420063     4.373606483    -2.292530062
 H        2.366986191     2.657643557    -2.177696808
 H       -0.050111894    16.191517040    -3.122633589
 H        0.193207305    17.688876959    -4.010796006
 H       -0.505806115    17.744922572    -2.398328033
 H        3.058033573    19.096766094    -2.060560135
 H        1.360430838    19.464596631    -1.705731983
 H        1.917268322    19.360036356    -3.370864429
 H        3.397979308    16.182550831     1.883045871
 H        5.064043065    16.001421555     1.347058744
 H        3.884604255    14.762082597     0.942339441
 H        4.629538904    16.635789585    -2.301490788
 H        4.544664710    15.014136828    -1.584200194
 H        5.736789686    16.174454182    -1.018324838
 H       -5.040163713    14.966754099    -0.933098216
 H       -3.927945573    15.145420736    -2.281476614
 H       -3.337791023    15.372304005    -0.639513952
 H       -1.894869789    12.043519774    -1.830489658
 H       -1.478611740    13.678528909    -1.285213099
 H       -2.219618221    13.427792695    -2.859378707
 H       -6.541226015    12.687604355    -1.133053158
 H       -7.707014394    12.198459617     0.085856070
 H       -6.539805606    11.028447783    -0.505130484
 H       -5.460842383    11.952151174     3.051796008
 H       -5.881920821    10.591640868     2.001739148
 H       -7.101621439    11.780913808     2.440961493
 H       -0.634418284     0.856570007    -2.886982811
 H       -0.738078755    -0.694909777    -3.710842108
 H        0.803271939    -0.166882002    -3.048732418
 H       -0.452998435    -2.975754306    -0.766306735
 H        0.920372824    -2.460647725    -1.762499000
 H       -0.619036625    -2.858570459    -2.510856636
 H        0.896126152    -0.166015302     2.956119057
 H       -0.544800575    -0.824800551     3.715060423
 H       -0.609923098     0.771949529     2.981672714
 H       -2.569088521    -1.618156350     0.704993008
 H       -2.698840698    -0.092490504     1.602759743
 H       -2.486393985    -1.612901795     2.459406242

