187   

Si        0.000000000     0.000000000     0.000000000
 C        1.865368467     0.000000000     0.000000000
 C       -0.675878459     1.711915447     0.000000000
 C        0.146589023     2.812741348    -0.259063283
 C       -0.377014900     4.105404178    -0.256332708
 C       -1.731408773     4.326174387     0.004850749
 C       -2.555485971     3.222135838     0.261925387
 C       -2.036123020     1.930899940     0.257409294
 C       -2.322433805     5.658813658     0.018224208
 C       -1.650269601     6.799322394    -0.213118490
 C       -2.255620424     8.126209535    -0.196324342
 C       -3.613366388     8.322380250     0.067551720
 C       -4.161583386     9.603052212     0.076330912
 C       -3.363265575    10.715478476    -0.205608728
 C       -2.000604141    10.524770335    -0.468796557
 C       -1.451832497     9.244868259    -0.449234188
Si       -4.064918510    12.413618990    -0.199708935
 C       -3.412727154    13.380739696    -1.610016752
 C       -3.054738044    12.822263085    -2.774075080
 C       -2.529786548    13.563955949    -3.922391444
 C       -2.193789168    12.849773031    -5.082957791
 C       -1.692894403    13.497877604    -6.199984855
 C       -1.544719483    14.896103178    -6.191877980
 C       -1.879557476    15.616320891    -5.038610033
 C       -2.354366288    14.948512290    -3.913297477
 N       -1.021246544    15.496783503    -7.380760529
 C       -1.997416385    15.425576717    -8.497011661
 C       -0.466194735    16.851061578    -7.205871026
 C       -3.383987021    15.988867340    -8.133925575
 C       -4.470453367    15.718837058    -9.189395868
 N       -4.593386432    14.334329007    -9.687517929
 C       -4.470513492    13.289031926    -8.751701125
 C       -5.055990212    13.423094692    -7.474105810
 C       -4.943396275    12.403131518    -6.543058809
 C       -4.339064472    11.180248620    -6.874110323
 C       -3.798252138    11.035998327    -8.153189009
 C       -3.851837361    12.069138056    -9.080392974
 C       -3.941975122    14.136615946   -10.993711144
 C       -4.241549206    10.129574407    -5.858075817
 C       -3.683599161     8.930919844    -6.076460668
Si       -3.523300770     7.569556310    -4.864665915
 C       -4.845699493     7.498433207    -3.589393423
 C       -5.982558652     8.311797901    -3.637022842
 C       -6.959075222     8.222492336    -2.647186394
 C       -6.840469820     7.293823680    -1.606717958
 C       -5.710847538     6.471191935    -1.567641406
 C       -4.722922101     6.573496017    -2.544548661
 C       -7.885231817     7.233061775    -0.590679023
 C       -7.871258495     6.399947214     0.463704679
 C       -8.911360403     6.332667953     1.483905215
 C      -10.045934403     7.147499972     1.459264193
 C      -11.016244789     7.049344224     2.456332215
 C      -10.874850694     6.127134294     3.497964831
 C       -9.737660565     5.308278982     3.524778412
 C       -8.768117354     5.412955283     2.531592456
Si      -12.146636951     5.985387975     4.821416926
 C      -13.719348349     6.875800408     4.359689389
 C      -12.499038317     4.138090078     5.115993486
 C      -11.467130519     6.736769353     6.433057228
 C       -3.540391813     5.936448165    -5.843038303
 C       -1.844962635     7.778126129    -3.982957047
 C       -5.958969081    12.326065327    -0.376752681
 C       -3.625063946    13.282301467     1.429721743
 C       -0.610976397    -0.915493237    -1.553346742
 C       -0.660641761    -0.904664890     1.538535146
 H        1.214344054     2.701995736    -0.466870433
 H        0.284573233     4.945341782    -0.460235327
 H       -3.613999724     3.372162124     0.467104963
 H       -2.725737772     1.107707120     0.464089892
 H       -3.393490181     5.681101858     0.242684592
 H       -0.579852033     6.783793741    -0.434468708
 H       -4.260710643     7.472199912     0.279038840
 H       -5.229503155     9.687907913     0.299387744
 H       -1.331516654    11.361616683    -0.693518337
 H       -0.388481395     9.114920882    -0.639342484
 H       -3.346214057    14.465088344    -1.445717958
 H       -3.121697847    11.738295280    -2.957656035
 H       -2.322031604    11.763956319    -5.109413893
 H       -1.420867421    12.931650700    -7.089528317
 H       -1.775134134    16.696192733    -5.010979445
 H       -2.601262041    15.524305148    -3.021974913
 H        0.089798233    17.119352492    -8.121089067
 H        0.262100937    16.841278820    -6.375988991
 H       -1.214629412    17.633207740    -7.011069873
 H       -4.211300822    14.965429040   -11.670425998
 H       -4.333376400    13.214057440   -11.460329331
 H       -2.843614699    14.072377072   -10.939581628
 H       -5.585085805    14.334743586    -7.212033167
 H       -5.355104471    12.548734107    -5.542550103
 H       -3.315459657    10.100186843    -8.438413429
 H       -3.398250199    11.917680188   -10.053881886
 H       -4.664639772    10.424952073    -4.888114129
 H       -3.254331488     8.682937800    -7.061298863
 H       -6.147252864     9.032543060    -4.444248781
 H       -7.829369589     8.873802679    -2.694498668
 H       -5.602071290     5.730063613    -0.778080380
 H       -3.853991425     5.912321800    -2.447872882
 H       -8.713452159     7.930867085    -0.740125602
 H       -7.042239892     5.701195791     0.611294315
 H      -10.182154759     7.869954195     0.656523459
 H      -11.881492529     7.714143187     2.384116601
 H       -9.574263893     4.569090734     4.314193211
 H       -7.890495678     4.770300475     2.570896146
 H       -1.574323565    15.952014629    -9.376355859
 H       -2.082142172    14.349601658    -8.779055403
 H       -3.704929267    15.557283352    -7.160839894
 H       -3.314548649    17.078535711    -7.960406534
 H       -5.465702044    15.989460690    -8.756807076
 H       -4.322156394    16.400549748   -10.056288496
 H        2.263446679    -1.029588721     0.044280471
 H        2.261667533     0.546506161     0.875110492
 H        2.274233010     0.475643243    -0.908612666
 H      -14.493521193     6.745823757     5.136928255
 H      -14.132114221     6.484529946     3.412062437
 H      -13.553946844     7.960064821     4.233375134
 H      -11.517878261     3.683867004     5.440679639
 C      -13.529063542     3.879388928     6.229877057
 C      -12.952107350     3.413579598     3.835566507
 H      -12.311461124     6.673076569     7.178844645
 C      -10.262715911     5.972077179     7.010613580
 C      -11.080247471     8.218746546     6.274974389
 H       -2.676112678     6.003958190    -6.565081205
 C       -3.336218057     4.684797336    -4.971817163
 C       -4.833805213     5.765543149    -6.660467122
 H       -1.936989440     7.217223679    -3.006152214
 C       -0.649268098     7.193751017    -4.754097592
 C       -1.548828775     9.252362063    -3.659638593
 H       -6.325587808    11.697533125     0.485698100
 C       -6.642210601    13.701987251    -0.283204626
 C       -6.390437982    11.644137059    -1.687923271
 H       -4.091283628    14.308135945     1.373666886
 C       -4.196439070    12.564429421     2.665143516
 C       -2.106566127    13.458781912     1.611311211
 H       -0.105967986    -1.924216002    -1.531438011
 C       -2.132684159    -1.145113466    -1.577347412
 C       -0.200605316    -0.203373768    -2.855621650
 H       -1.785392612    -0.897379658     1.441607547
 C       -0.205089803    -2.371750194     1.631426164
 C       -0.296839392    -0.182072022     2.848311058
 H      -13.240523330     4.309605595     7.197650429
 H      -13.638800798     2.797648016     6.395241431
 H      -14.530943995     4.254496563     5.982337978
 H      -12.236225310     3.508734010     3.006525325
 H      -13.928564234     3.758018598     3.469951893
 H      -13.056507174     2.336356328     4.028538185
 H      -10.480365700     4.919989738     7.233829334
 H       -9.949597324     6.428186320     7.961268470
 H       -9.382454668     6.003192171     6.353091705
 H      -11.911618245     8.853995172     5.943469844
 H      -10.246174756     8.369889827     5.574615157
 H      -10.748392359     8.626593153     7.240631416
 H       -2.439457055     4.726307068    -4.339294432
 H       -3.220760152     3.797662434    -5.610798273
 H       -4.195543040     4.479396007    -4.317234144
 H       -5.019191791     6.588979326    -7.363441885
 H       -5.728251000     5.663778660    -6.029269661
 H       -4.779473680     4.849432727    -7.265171383
 H       -0.739710013     6.117927400    -4.950152959
 H        0.271298418     7.319116012    -4.165449557
 H       -0.471025149     7.696210523    -5.713672107
 H       -2.325330470     9.719781677    -3.034519431
 H       -1.412859062     9.870597430    -4.557675753
 H       -0.613932262     9.333182424    -3.086729535
 H       -6.445001152    14.224139873     0.661526587
 H       -7.733646673    13.583756848    -0.343987755
 H       -6.360497777    14.375781464    -1.103990275
 H       -5.984738308    10.627237366    -1.807720434
 H       -6.106655337    12.219504068    -2.580849672
 H       -7.483936770    11.542529929    -1.717119518
 H       -5.290798649    12.479071046     2.652807714
 H       -3.942490568    13.123749702     3.577024709
 H       -3.785045273    11.553755349     2.801817096
 H       -1.629026599    14.007657927     0.788407540
 H       -1.577074396    12.501829981     1.725417037
 H       -1.900565274    14.033411354     2.525444858
 H       -2.501478417    -1.717041020    -0.716549011
 H       -2.410468604    -1.723644324    -2.470595344
 H       -2.704718889    -0.208112692    -1.630987581
 H        0.884029180    -0.069654237    -2.957141792
 H       -0.669792010     0.784741593    -2.967772348
 H       -0.519379829    -0.795906807    -3.725173560
 H       -0.489740777    -2.971818339     0.757493073
 H       -0.672870580    -2.855347758     2.501397373
 H        0.879340526    -2.475403716     1.769519814
 H       -0.641038930     0.861640545     2.878148199
 H        0.782115059    -0.180298485     3.052427344
 H       -0.772359688    -0.686370859     3.701624538

