187   

Si        0.000000000     0.000000000     0.000000000
 C        1.865405332     0.000000000     0.000000000
 C       -0.678101578     1.711511937     0.000000000
 C        0.142137416     2.814042192     0.259106070
 C       -0.383803870     4.105916577     0.256199723
 C       -1.740064681     4.324533694     0.001523457
 C       -2.561526522     3.218437246    -0.254763980
 C       -2.038952788     1.928221584    -0.255991015
 C       -2.333917646     5.657322080    -0.011755567
 C       -1.659957039     6.797878764     0.213996317
 C       -2.254787326     8.130270179     0.200489741
 C       -1.433627093     9.237395541     0.453111926
 C       -1.956653040    10.528007083     0.450690052
 C       -3.319110803    10.739034999     0.207722654
 C       -4.142188609     9.635781554    -0.043413970
 C       -3.612516327     8.346173748    -0.051349737
Si       -4.031290235    12.434915871     0.199807090
 C       -5.821505966    12.325129021     0.550085304
 C       -6.799133835    12.901738099    -0.160186361
 C       -8.222124896    12.781968510     0.164273594
 C       -9.159403468    13.431786138    -0.654072773
 C      -10.515483561    13.349159752    -0.389498694
 C      -10.980761849    12.578813810     0.697449069
 C      -10.046045004    11.934048672     1.522218365
 C       -8.684831466    12.058043091     1.264705832
 N      -12.375770862    12.528549400     0.922986052
 C      -13.188842266    12.106186871    -0.242278493
 C      -12.814875177    11.918534254     2.188737578
 C      -12.541798642    11.070037519    -1.176076317
 C      -12.205793550     9.742867486    -0.471425467
 N      -11.162372491     8.962842209    -1.166575089
 C      -11.423595463     8.640009489    -2.513951970
 C      -12.727367109     8.250562971    -2.889312489
 C      -13.010794823     7.928216056    -4.206089332
 C      -12.007043888     7.932032797    -5.185963584
 C      -10.710865155     8.288370965    -4.805725683
 C      -10.413322092     8.631923959    -3.492695668
 C       -9.800066909     9.425375792    -0.849933441
 C      -12.362020155     7.583312004    -6.562356193
 C      -11.490732547     7.552952611    -7.579929990
Si      -11.930256635     7.117925139    -9.300263752
 C      -13.336309722     5.934319705    -9.378384506
 C      -13.511197853     4.991000094    -8.357169688
 C      -14.570809939     4.089208119    -8.403327854
 C      -15.472837051     4.097005072    -9.475487184
 C      -15.290362453     5.032767992   -10.497348053
 C      -14.232687101     5.940505339   -10.451895892
 C      -16.567461400     3.132214092    -9.478948970
 C      -17.500647402     3.036761191   -10.441160820
 C      -18.595268360     2.071952180   -10.444594861
 C      -18.778777825     1.135935371    -9.423605734
 C      -19.839666500     0.231432997    -9.467273927
 C      -20.737724985     0.239555538   -10.539039058
 C      -20.555248498     1.176709080   -11.565121829
 C      -19.498688679     2.081730937   -11.515954135
Si      -22.143106755    -0.947068817   -10.612385422
 C      -21.960500507    -2.307198329    -9.348862955
 C      -23.773886016    -0.022397970   -10.282264889
 C      -22.208998164    -1.683246773   -12.366602798
 C      -12.361348353     8.711693638   -10.245783206
 C      -10.412751399     6.313925647   -10.118943377
 C       -3.208198245    13.491098281     1.550242915
 C       -3.703587026    13.236881335    -1.492335971
 C       -0.657787084    -0.899890073    -1.543015207
 C       -0.610684069    -0.925685119     1.547015580
 H        1.210406572     2.705979394     0.466079461
 H        0.276880247     4.947326698     0.456913992
 H       -3.620891716     3.366738376    -0.456206491
 H       -2.727791024     1.104741175    -0.464989764
 H       -3.406707640     5.677689745    -0.225678485
 H       -0.587346068     6.777682561     0.427768373
 H       -0.373739634     9.090167818     0.651513456
 H       -1.268121231    11.353883638     0.648853988
 H       -5.213920607     9.743460464    -0.241806882
 H       -4.271204813     7.503425179    -0.253600713
 H       -6.048951628    11.723337731     1.446535303
 H       -6.607638398    13.513259790    -1.051308763
 H       -8.816386685    14.018750054    -1.506865809
 H      -11.228925601    13.884373280    -1.012142117
 H      -10.369783682    11.338014370     2.369684889
 H       -7.974971994    11.564108507     1.930502197
 H      -13.886780595    12.140741744     2.336888989
 H      -12.276239032    12.391322701     3.029840535
 H      -12.674196988    10.827996067     2.244840641
 H       -9.705197796     9.588310706     0.238449603
 H       -9.520601129    10.366994418    -1.351977884
 H       -9.074096020     8.638587881    -1.121221880
 H      -13.516910528     8.204027591    -2.144855550
 H      -14.029715998     7.651474418    -4.479703617
 H       -9.911128331     8.299789916    -5.547617341
 H       -9.394018223     8.909478846    -3.242166634
 H      -13.426617568     7.337757174    -6.685006524
 H      -10.431447098     7.812399306    -7.431420506
 H      -12.833569543     4.934315566    -7.498139338
 H      -14.694978649     3.368341079    -7.597301169
 H      -15.975917607     5.059505926   -11.342059690
 H      -14.141436781     6.647584581   -11.280814356
 H      -16.587407303     2.459982984    -8.616017504
 H      -17.480487717     3.708317192   -11.304454052
 H      -18.091113888     1.105760806    -8.580341271
 H      -19.932003349    -0.476434025    -8.638913715
 H      -21.224943126     1.229090236   -12.428174513
 H      -19.373969963     2.802652503   -12.321681563
 H      -14.172428910    11.730304681     0.113503546
 H      -13.405239602    13.034739774    -0.825170975
 H      -13.215304875    10.878107223    -2.034558416
 H      -11.621389271    11.491184534    -1.630043933
 H      -11.856516310     9.927284231     0.569169318
 H      -13.114947010     9.108323284    -0.378279602
 H        2.263125101    -1.029893666    -0.038985107
 H        2.274877974     0.480302210     0.905893280
 H        2.261578398     0.541680673    -0.878093141
 H      -22.786121820    -3.036854496    -9.427615168
 H      -21.963861723    -1.911396570    -8.318157125
 H      -21.014729270    -2.859883626    -9.495395525
 H      -24.577299246    -0.814693734   -10.277826704
 C      -23.787053878     0.678372650    -8.911222070
 C      -24.129929717     1.010173792   -11.366677558
 H      -22.364018255    -0.808577550   -13.063278889
 C      -20.892580364    -2.374499961   -12.765334611
 C      -23.374998234    -2.665388862   -12.577231977
 H      -12.557879417     8.400417292   -11.312154290
 C      -13.632995395     9.387021144    -9.701461977
 C      -11.215557575     9.739434882   -10.255550121
 H       -9.584092864     7.077038734   -10.058712463
 C       -9.952314743     5.048124779    -9.373864049
 C      -10.637736844     5.967939446   -11.601110095
 H       -2.114437502    13.546904927     1.277954276
 C       -3.758015210    14.927033605     1.609030497
 C       -3.318059514    12.853266138     2.946629386
 H       -4.242009936    14.228498817    -1.476921113
 C       -2.211965600    13.509395997    -1.756495311
 C       -4.266945559    12.401439574    -2.656608337
 H       -1.782596353    -0.897372767    -1.446291443
 C       -0.296658545    -0.170079814    -2.849470028
 C       -0.196945473    -2.364891334    -1.642727374
 H       -0.109411599    -1.936129256     1.514423067
 C       -0.193520313    -0.227654749     2.854581868
 C       -2.133065025    -1.150523260     1.572850140
 H      -23.621652712    -0.006274864    -8.069435776
 H      -24.765996804     1.147683005    -8.737403290
 H      -23.042188128     1.483771592    -8.836233608
 H      -24.218565721     0.575904635   -12.370470438
 H      -23.409807837     1.838903321   -11.419103411
 H      -25.105321089     1.466885538   -11.143709949
 H      -20.016175366    -1.714682314   -12.690893797
 H      -20.941266823    -2.702515096   -13.813443977
 H      -20.681706207    -3.272684261   -12.169924830
 H      -24.359105071    -2.221309323   -12.379262004
 H      -23.287564217    -3.571964649   -11.963854804
 H      -23.395786116    -3.003798892   -13.623455424
 H      -14.515476346     8.732364626    -9.715209444
 H      -13.888828761    10.261785773   -10.315396996
 H      -13.512770298     9.756275870    -8.672553378
 H      -10.289574255     9.355834410   -10.702390952
 H      -10.972896736    10.117855899    -9.252574454
 H      -11.503299183    10.616574555   -10.852831069
 H       -9.715044115     5.226343746    -8.315981240
 H       -9.035443873     4.652434869    -9.833140895
 H      -10.691618875     4.235281689    -9.415592485
 H      -10.876809523     6.841096220   -12.221287268
 H      -11.432299698     5.222919104   -11.751084457
 H       -9.723990300     5.529655363   -12.028016410
 H       -3.635350970    15.479328807     0.668413535
 H       -3.222130073    15.504236379     2.376247343
 H       -4.822277356    14.967490308     1.882150566
 H       -2.909297327    11.834030510     2.994143142
 H       -4.350732043    12.814584890     3.319572633
 H       -2.748970049    13.445974955     3.677135222
 H       -1.756705217    14.188894714    -1.024724474
 H       -2.085937382    13.988606503    -2.738422719
 H       -1.607351404    12.591803856    -1.785922491
 H       -5.342002282    12.192856230    -2.569741384
 H       -3.754043237    11.435727864    -2.774109233
 H       -4.131756501    12.938194278    -3.606165604
 H       -0.645878833     0.872160567    -2.874878654
 H       -0.769443071    -0.672690583    -3.705285516
 H        0.782253245    -0.162401858    -3.053197404
 H       -0.484410970    -2.971389865    -0.774188055
 H        0.888409746    -2.464538200    -1.775967976
 H       -0.658634870    -2.844393060    -2.518217566
 H        0.892067994    -0.100786388     2.954924356
 H       -0.513883906    -0.825905098     3.719618646
 H       -0.656817204     0.762016839     2.976784481
 H       -2.506004933    -1.712517045     0.707306903
 H       -2.701763494    -0.212182931     1.637303505
 H       -2.410437058    -1.737137402     2.460894571

