187   

Si        0.000000000     0.000000000     0.000000000
 C        1.865408047     0.000000000     0.000000000
 C       -0.681158153     1.710033117     0.000000000
 C        0.140487169     2.817563672    -0.231385864
 C       -0.390063594     4.107645063    -0.228331008
 C       -1.752489880     4.319299671    -0.002395760
 C       -2.575268084     3.208040090     0.226301582
 C       -2.048019011     1.919835653     0.228678998
 C       -2.352157253     5.649390584     0.010062363
 C       -1.679260207     6.795427154    -0.189471931
 C       -2.282287556     8.124142362    -0.176323160
 C       -1.463539302     9.238844810    -0.399434267
 C       -1.995302626    10.526155493    -0.395970232
 C       -3.359876184    10.729790464    -0.158075003
 C       -4.179631778     9.617425668     0.064766574
 C       -3.646262982     8.329740783     0.049986571
Si       -4.086178371    12.419917275    -0.148310350
 C       -5.515650655    12.546196032     0.985183086
 C       -5.659136781    11.817512131     2.100483307
 C       -6.802780204    11.918026311     3.008025284
 C       -6.838354637    11.099848933     4.145778512
 C       -7.897842576    11.155568256     5.037061304
 C       -8.947000579    12.080166566     4.845940468
 C       -8.910386381    12.902861842     3.703399887
 C       -7.865578333    12.799988794     2.794347077
 N      -10.021972119    12.134992315     5.752357846
 C       -9.755094484    11.722007545     7.141478551
 C      -10.899508777    13.315646274     5.671415822
 C       -8.743655488    12.630572285     7.858722251
 C       -8.380791578    12.050708458     9.235238170
 N       -7.453371009    12.905802540     9.996476708
 C       -7.917580001    14.175602870    10.384959233
 C       -9.292993536    14.392988165    10.614994651
 C       -9.752914929    15.642973047    10.997787903
 C       -8.867678081    16.707600103    11.215778466
 C       -7.502212987    16.482503561    11.018815327
 C       -7.026383122    15.241290700    10.618141577
 C       -6.070418404    12.828477656     9.494138068
 C       -9.406663283    18.007603749    11.619021600
 C       -8.654728462    19.090944058    11.853438561
Si       -9.269982593    20.735997777    12.358060592
 C       -8.326565466    21.328563744    13.821781578
 C       -7.647816000    20.416818162    14.639609097
 C       -6.932678065    20.862367920    15.748513969
 C       -6.887398554    22.224458673    16.073118418
 C       -7.571743016    23.130762361    15.257906897
 C       -8.284992666    22.689239251    14.144438857
 C       -6.124402815    22.641288244    17.245068445
 C       -5.996085103    23.911903160    17.663414289
 C       -5.232720119    24.327278270    18.835626241
 C       -4.549064971    23.420644130    19.649787486
 C       -3.831036811    23.861185591    20.761565496
 C       -3.776365324    25.221729992    21.079787905
 C       -4.460727720    26.133250687    20.264210033
 C       -5.180830282    25.690087247    19.158457391
Si       -2.833149783    25.819032828    22.543514492
 C       -1.729457908    24.485845754    23.239487511
 C       -1.793605405    27.321457227    22.009113290
 C       -4.049390030    26.373123071    23.899062435
 C       -9.018479239    21.944570552    10.909588857
 C      -11.120622733    20.679764929    12.791437595
 C       -2.773976490    13.694710085     0.373994348
 C       -4.679962484    12.838940364    -1.906332045
 C       -0.605397289    -0.926792894    -1.548772446
 C       -0.659559957    -0.900541976     1.541883628
 H        1.213305976     2.714755781    -0.416268675
 H        0.271659738     4.953172201    -0.407038528
 H       -3.639359308     3.350904954     0.405035724
 H       -2.738164492     1.092327560     0.416255789
 H       -3.429757363     5.662898239     0.199122860
 H       -0.602126283     6.782978830    -0.379188521
 H       -0.399384248     9.100595963    -0.580003291
 H       -1.308365640    11.356301730    -0.581234944
 H       -5.254638241     9.716714683     0.251448595
 H       -4.305675805     7.480725565     0.220990255
 H       -6.267435556    13.294389848     0.691865157
 H       -4.918001062    11.071387967     2.421436165
 H       -6.024926706    10.396284230     4.329562226
 H       -7.907238306    10.481636072     5.888450758
 H       -9.701660697    13.620115597     3.510689089
 H       -7.872863191    13.436442864     1.908106766
 H      -11.674882568    13.266405764     6.454113939
 H      -11.426611982    13.309192253     4.700161616
 H      -10.359105790    14.270683562     5.779718803
 H       -5.837279053    11.796813893     9.181369500
 H       -5.372932458    13.078153350    10.314263388
 H       -5.876025251    13.499916131     8.641297426
 H      -10.006172481    13.584413615    10.486361299
 H      -10.822967974    15.792426687    11.145454567
 H       -6.789227006    17.292784872    11.182691791
 H       -5.957754900    15.111188226    10.479281853
 H      -10.500059122    18.010303015    11.716458353
 H       -7.558113709    19.055489545    11.739114083
 H       -7.652808646    19.340643464    14.436999862
 H       -6.406390742    20.140372694    16.370210231
 H       -7.552490851    24.194220103    15.488291735
 H       -8.798985848    23.444321299    13.543516836
 H       -5.640592450    21.824683826    17.789250801
 H       -6.479913399    24.728390424    17.119580000
 H       -4.572415594    22.356542610    19.421887444
 H       -3.317531115    23.104346521    21.361027302
 H       -4.452977203    27.208571383    20.463716327
 H       -5.707004402    26.412890234    18.537894933
 H      -10.722663715    11.706032533     7.692804043
 H       -9.401224639    10.665559967     7.132473799
 H       -7.831421251    12.749188860     7.241470797
 H       -9.155366582    13.652281698     7.969526674
 H       -9.296135430    11.886374924     9.848187114
 H       -7.913593220    11.045511520     9.123277026
 H        2.262860386    -1.029608290     0.048412783
 H        2.262488063     0.549777174     0.872594453
 H        2.274244016     0.471736703    -0.910730289
 H       -1.130838902    24.866555438    24.086298461
 H       -1.023190800    24.116511669    22.473865233
 H       -2.311828649    23.622310180    23.605737213
 H       -2.531587976    28.093626778    21.643651499
 C       -0.984797697    27.949109304    23.158231215
 C       -0.840999982    26.993946590    20.844982105
 H       -3.409979237    26.657916180    24.784043018
 C       -4.895087079    27.598255347    23.508344973
 C       -4.996219332    25.241076573    24.338291282
 H       -9.435129077    22.934777977    11.254520321
 C       -7.532810898    22.149071289    10.563680627
 C       -9.777234727    21.525515939     9.638191963
 H      -11.634176829    20.220366100    11.897821522
 C      -11.409579845    19.796572054    14.019056916
 C      -11.734708222    22.071048864    13.029054460
 H       -1.945944850    13.622865045    -0.388888798
 C       -3.298687815    15.141531203     0.369919207
 C       -2.177879890    13.383554739     1.758695123
 H       -5.099113066    13.884955479    -1.853629567
 C       -3.545608581    12.829868645    -2.945738976
 C       -5.801436987    11.897720640    -2.381278388
 H       -0.098585028    -1.934499027    -1.516780594
 C       -2.126411178    -1.160220441    -1.577201939
 C       -0.190644120    -0.224676683    -2.854890070
 H       -1.784325243    -0.895351188     1.444917835
 C       -0.201883034    -2.366629044     1.640056144
 C       -0.297214208    -0.172914969     2.849288432
 H       -1.607980117    28.275421436    24.000890335
 H       -0.458288970    28.845880171    22.800297495
 H       -0.211563071    27.277524899    23.554273171
 H       -1.358414735    26.595650522    19.960405722
 H       -0.056847089    26.276307458    21.120312398
 H       -0.323537853    27.905339440    20.513095228
 H       -4.294236799    28.478356007    23.246673216
 H       -5.529375461    27.901309277    24.354219157
 H       -5.578616612    27.394766134    22.672031469
 H       -4.471094920    24.353352181    24.713661880
 H       -5.671256921    24.913015178    23.534688812
 H       -5.640973265    25.586385139    25.159210151
 H       -6.929832623    22.490464297    11.417045275
 H       -7.429338311    22.920364992     9.787296524
 H       -7.058068726    21.243016476    10.162759023
 H      -10.862132304    21.447434217     9.784690809
 H       -9.427202858    20.567709019     9.227109080
 H       -9.626859408    22.272929282     8.846158388
 H      -11.038068185    18.767585698    13.918551135
 H      -12.493607990    19.719395709    14.182223206
 H      -10.987071610    20.207745283    14.947490199
 H      -11.662035077    22.734095869    12.157704940
 H      -11.291340674    22.593695216    13.888481760
 H      -12.807423949    21.974913122    13.251526662
 H       -3.670623645    15.467670441    -0.609656517
 H       -2.488348995    15.835510801     0.636304899
 H       -4.098423748    15.308011861     1.105286035
 H       -1.728507385    12.383017010     1.826058380
 H       -2.915810774    13.468802789     2.569606945
 H       -1.376534152    14.097749327     1.994467121
 H       -2.747697429    13.550719433    -2.726533728
 H       -3.940200291    13.101002019    -3.935726704
 H       -3.080458460    11.840517413    -3.063224705
 H       -6.677413915    11.892753815    -1.718245092
 H       -5.465846792    10.856720489    -2.495008093
 H       -6.164694891    12.212258607    -3.369861758
 H       -2.498795752    -1.720161660    -0.710152637
 H       -2.398144274    -1.752363547    -2.463327960
 H       -2.699795294    -0.225217010    -1.647849391
 H        0.894509822    -0.093848678    -2.954916185
 H       -0.657214168     0.763722089    -2.975158243
 H       -0.508852288    -0.822117006    -3.721252536
 H       -0.486556172    -2.970472422     0.768746130
 H       -0.668130766    -2.847579925     2.512288943
 H        0.882784790    -2.468324059     1.777532433
 H       -0.646802601     0.869120636     2.876686977
 H        0.781929950    -0.165213597     3.051886024
 H       -0.768980977    -0.677269346     3.704611063

