187   

Si        0.000000000     0.000000000     0.000000000
 C        1.865147724     0.000000000     0.000000000
 C       -0.681408270     1.709863862     0.000000000
 C        0.090672550     2.789912649     0.440194767
 C       -0.431637171     4.083137484     0.437654698
 C       -1.736486435     4.325881657     0.000655474
 C       -2.510598205     3.241875249    -0.434503245
 C       -1.992511645     1.949741703    -0.432278036
 C       -2.325607708     5.660467775    -0.020090162
 C       -1.696693998     6.782543463     0.369118778
 C       -2.290369899     8.115349898     0.346469160
 C       -1.523159686     9.203771092     0.780851680
 C       -2.049279839    10.493689370     0.776456754
 C       -3.350765801    10.726863466     0.318398776
 C       -4.118310888     9.641001003    -0.120051347
 C       -3.594237912     8.350076539    -0.100292057
Si       -4.085351282    12.415017939     0.295197502
 C       -5.133329977    12.642921371    -1.187126119
 C       -4.905234411    12.017759730    -2.350222846
 C       -5.721799294    12.176145354    -3.554763561
 C       -5.366613236    11.457923541    -4.706974060
 C       -6.102261812    11.568481716    -5.875098391
 C       -7.253011134    12.383412120    -5.917953134
 C       -7.600240719    13.115789272    -4.770060446
 C       -6.821404108    13.033988689    -3.620146483
 N       -7.976670606    12.469807497    -7.129192384
 C       -8.295524776    11.193136750    -7.799566213
 C       -9.105535921    13.415722135    -7.149026485
 C       -9.360055441    10.328609357    -7.096564785
 C       -8.729754926     9.260671960    -6.180864112
 N       -9.669061784     8.706417715    -5.182950576
 C      -10.208368798     9.645900560    -4.275005545
 C       -9.356010893    10.642614217    -3.756326500
 C       -9.839118080    11.581600216    -2.866311940
 C      -11.156912754    11.515314089    -2.385431952
 C      -11.989638018    10.505598882    -2.865428616
 C      -11.529531533     9.581201420    -3.800764807
 C      -10.615516058     7.744829843    -5.772611147
 C      -11.574984139    12.554125858    -1.447610255
 C      -12.779835375    12.676040410    -0.872711580
Si      -13.067982331    14.075666993     0.280193385
 C      -11.419756554    14.415299309     1.034490101
 C      -10.789287066    13.412856670     1.784252487
 C       -9.545694681    13.643216844     2.363919164
 C       -8.891286997    14.870548942     2.191154057
 C       -9.516837281    15.864509959     1.435667260
 C      -10.768916783    15.640317385     0.863897889
 C       -7.589878039    15.064422145     2.818157628
 C       -6.861043422    16.190867151     2.744136404
 C       -5.559589812    16.368592229     3.377909358
 C       -4.953230363    15.358605104     4.129650197
 C       -3.708855425    15.558971206     4.722914374
 C       -3.034275983    16.774304777     4.561465588
 C       -3.633742346    17.784660792     3.799879381
 C       -4.880730568    17.582301173     3.213238714
Si       -1.391841076    17.012102291     5.356145511
 C       -1.280343938    16.085247854     6.969861830
 C       -0.090124477    16.331975046     4.140958846
 C       -1.061272810    18.863530487     5.634314926
 C      -13.707166095    15.577428054    -0.699747263
 C      -14.360358423    13.623580142     1.594448277
 C       -5.201452557    12.531016655     1.834739143
 C       -2.759113481    13.766701587     0.427802915
 C       -0.647614949    -0.916733523    -1.538270475
 C       -0.624196909    -0.914651701     1.548179240
 H        1.118176116     2.662674168     0.791901766
 H        0.190834917     4.906964785     0.781999930
 H       -3.530013494     3.408800650    -0.777611077
 H       -2.644678117     1.144217293    -0.780908842
 H       -3.355979989     5.699366231    -0.386410801
 H       -0.667064676     6.745559472     0.736004873
 H       -0.505397799     9.042720222     1.130045700
 H       -1.406681302    11.302735978     1.134148222
 H       -5.142175791     9.765369205    -0.492132065
 H       -4.212138291     7.521643223    -0.442387388
 H       -5.969051430    13.348306219    -1.064462172
 H       -4.071884551    11.313574213    -2.489241011
 H       -4.493704439    10.804056424    -4.686664853
 H       -5.783342319    11.033509936    -6.765554635
 H       -8.478284849    13.754926487    -4.763446134
 H       -7.093620071    13.635668365    -2.751104547
 H       -9.521504093    13.467974571    -8.169187054
 H       -8.733838682    14.426364047    -6.900784905
 H       -9.922021136    13.157291548    -6.454514140
 H      -10.068529035     7.039393868    -6.420640812
 H      -11.415548630     8.214628898    -6.365686467
 H      -11.072729715     7.145392485    -4.964590157
 H       -8.308882543    10.683095533    -4.058200967
 H       -9.168552768    12.364086181    -2.504070009
 H      -13.017071945    10.434917382    -2.509620814
 H      -12.211270440     8.817727257    -4.159415135
 H      -10.753903031    13.263536601    -1.236727493
 H      -13.605100325    11.985684204    -1.068411461
 H      -11.243006033    12.427167598     1.932061450
 H       -9.075835008    12.856752840     2.951978053
 H       -9.030903535    16.826712021     1.287764697
 H      -11.213715797    16.461027416     0.294898405
 H       -7.224459416    14.200155415     3.383630823
 H       -7.223011216    17.056698690     2.183733613
 H       -5.460393149    14.404824914     4.272246102
 H       -3.290938358    14.734552323     5.308129364
 H       -3.151808717    18.752780493     3.639834874
 H       -5.331298100    18.379459737     2.625369056
 H       -8.639249537    11.444516444    -8.830251767
 H       -7.353693576    10.616777641    -7.935809481
 H      -10.038122606    10.973771446    -6.502451655
 H      -10.006627634     9.842117405    -7.847748139
 H       -8.322813940     8.420922914    -6.784620279
 H       -7.855013560     9.686070040    -5.632389049
 H        2.262790692    -1.029413230    -0.048486096
 H        2.276605098     0.472966338     0.908696566
 H        2.259487365     0.550318479    -0.873742950
 H       -0.313025912    16.271500146     7.469810246
 H       -1.376760932    14.994738771     6.828161566
 H       -2.079536669    16.404424753     7.663810478
 H        0.902605372    16.418806883     4.667882010
 C       -0.322991089    14.849745376     3.793835335
 C       -0.011128028    17.135265767     2.830078126
 H       -1.132159800    19.349952386     4.617939158
 C       -2.111897641    19.520684303     6.547918406
 C        0.342048464    19.156226285     6.195643109
 H      -13.613051059    16.462559286    -0.006409805
 C      -12.871432579    15.860442575    -1.962405411
 C      -15.185616274    15.456399340    -1.112621359
 H      -15.324265405    13.465517592     1.027181429
 C      -14.044965968    12.320949150     2.351088052
 C      -14.586180108    14.750698079     2.618438789
 H       -5.516643188    13.612954464     1.908273525
 C       -6.469028176    11.668381291     1.711275273
 C       -4.457853636    12.148639044     3.126696619
 H       -2.169817542    13.528663402     1.361664932
 C       -1.786422476    13.762306774    -0.765046199
 C       -3.340863987    15.181469056     0.592489809
 H       -1.772195067    -0.929792373    -1.441368893
 C       -0.295871750    -0.190300149    -2.849162152
 C       -0.167672983    -2.376293167    -1.630103701
 H       -0.148985704    -1.937214150     1.513640325
 C       -0.187945176    -0.229094823     2.855967149
 C       -2.152238501    -1.098446671     1.573152423
 H       -0.315047211    14.189633499     4.670329221
 H        0.476377727    14.489175520     3.130450725
 H       -1.267946090    14.681990190     3.254707437
 H        0.250325818    18.190322654     2.980633691
 H       -0.944858440    17.100021692     2.250525457
 H        0.769711630    16.716318670     2.178799206
 H       -3.142995477    19.394073374     6.189021121
 H       -1.937066757    20.604602905     6.605150622
 H       -2.074420519    19.147624010     7.580321990
 H        1.152284480    18.784630321     5.554888153
 H        0.496243047    18.745139208     7.202106654
 H        0.492697459    20.242279025     6.281766186
 H      -11.799390416    15.993094749    -1.765360605
 H      -13.214398290    16.787836785    -2.441532551
 H      -12.966534609    15.066965760    -2.718656454
 H      -15.869973966    15.364785598    -0.259507444
 H      -15.374296061    14.610452947    -1.787453543
 H      -15.498045322    16.358786138    -1.658010227
 H      -13.851478392    11.465339626     1.690016249
 H      -14.900558645    12.036496053     2.980324192
 H      -13.187176595    12.421018157     3.030551388
 H      -14.906760312    15.696906297     2.163601066
 H      -13.695287003    14.960662826     3.227583292
 H      -15.379278807    14.464733758     3.324343689
 H       -7.098613794    11.941445751     0.851846477
 H       -7.097913629    11.790083655     2.604086608
 H       -6.252126595    10.593541081     1.636238728
 H       -3.620134621    12.820660807     3.357441815
 H       -4.065580537    11.121366864     3.109082420
 H       -5.141678705    12.192688180     3.986163130
 H       -1.288828899    12.795926859    -0.922056211
 H       -0.986793476    14.498579125    -0.602687221
 H       -2.273373952    14.039609009    -1.711052096
 H       -3.954359125    15.298794013     1.498646260
 H       -3.946671730    15.503106244    -0.264552426
 H       -2.527036830    15.914603391     0.688894976
 H       -0.656387973     0.847927100    -2.880311034
 H       -0.762555749    -0.703348257    -3.701961133
 H        0.782985452    -0.171174519    -3.052979339
 H       -0.445394239    -2.981174493    -0.757287446
 H        0.918650875    -2.462360343    -1.764950881
 H       -0.624708177    -2.867201835    -2.501594355
 H        0.900661168    -0.131485984     2.955519633
 H       -0.523485867    -0.819547904     3.720621470
 H       -0.625460828     0.772160505     2.979438830
 H       -2.536528406    -1.668005049     0.717595492
 H       -2.696530499    -0.144123697     1.614508193
 H       -2.448651078    -1.658753230     2.471819879

