187   

Si        0.000000000     0.000000000     0.000000000
 C        1.865315958     0.000000000     0.000000000
 C       -0.661658507     1.718402595     0.000000000
 C        0.053858242     2.744252251    -0.627913799
 C       -0.435885281     4.049487954    -0.635167128
 C       -1.653709011     4.359498260    -0.023259515
 C       -2.372609580     3.330022051     0.597880732
 C       -1.886063160     2.025034025     0.606612088
 C       -2.203047240     5.711377694    -0.007322527
 C       -1.612001269     6.781099624    -0.566129541
 C       -2.154949907     8.135215954    -0.554232096
 C       -3.371032160     8.456296338     0.054329913
 C       -3.851105357     9.765965872     0.040737970
 C       -3.132231827    10.779546525    -0.599729906
 C       -1.914010833    10.459505198    -1.215107993
 C       -1.430899701     9.154543006    -1.187442856
Si       -3.727247171    12.520279994    -0.642677089
 C       -3.354350924    13.305519877    -2.251612306
 C       -3.283926651    12.630398306    -3.406995348
 C       -2.987257478    13.238559044    -4.704160088
 C       -2.943221326    12.416680249    -5.839988104
 C       -2.667235835    12.938219458    -7.092444939
 C       -2.369844730    14.310435852    -7.246746239
 C       -2.411493876    15.135378525    -6.106493564
 C       -2.737969205    14.603654221    -4.865121185
 N       -2.091979741    14.824226312    -8.524403683
 C       -1.418546045    13.930238031    -9.480456789
 C       -1.615713201    16.213881581    -8.606800883
 C       -0.014005694    13.493560238    -9.023243528
 C        0.580535343    12.413231869    -9.942728270
 N        1.043111959    12.888846813   -11.260790229
 C        0.035646697    13.293462840   -12.164352341
 C       -1.064493061    12.434517038   -12.374640684
 C       -2.073879457    12.792794756   -13.251807584
 C       -2.005928641    13.986990823   -13.985802938
 C       -0.901286118    14.820253588   -13.798055079
 C        0.112010314    14.483129805   -12.907330933
 C        2.232907700    13.750607440   -11.170361997
 C       -3.101736649    14.316670903   -14.899488374
 C       -3.145936537    15.425246493   -15.649298237
Si       -4.487544626    15.883212221   -16.803300750
 C       -3.777591173    16.336229923   -18.437964188
 C       -2.511083008    15.872588694   -18.809194738
 C       -1.968520547    16.213423345   -20.047692506
 C       -2.682725958    17.012001027   -20.945102258
 C       -3.954351911    17.468648495   -20.573181149
 C       -4.497393029    17.134885395   -19.335260896
 C       -2.155113960    17.393551343   -22.251023157
 C       -0.954269182    17.024949295   -22.728547041
 C       -0.426529763    17.406394630   -24.034385768
 C       -1.137649690    18.208986494   -24.930020540
 C       -0.594622340    18.549523074   -26.168899494
 C        0.670796800    18.086498883   -26.542400005
 C        1.385499407    17.279596839   -25.646478286
 C        0.843495439    16.946667988   -24.408318852
Si        1.402069324    18.526499303   -28.173570328
 C        0.132362618    19.278286862   -29.314691019
 C        2.813682903    19.778119546   -27.920305188
 C        2.126268470    16.944774923   -28.946521676
 C       -5.717845881    14.452308162   -17.036201570
 C       -5.418639963    17.374587810   -16.074874795
 C       -5.604549104    12.590932278    -0.342254822
 C       -2.853245348    13.504003734     0.730912527
 C       -0.632947828    -0.899063242    -1.553531963
 C       -0.647533225    -0.929229968     1.530242662
 H        1.012105052     2.564003357    -1.123300271
 H        0.142803989     4.829788725    -1.126159641
 H       -3.324043602     3.548902211     1.078982444
 H       -2.493114035     1.263927680     1.104338563
 H       -3.163527652     5.810203322     0.506386778
 H       -0.650962151     6.679716175    -1.079351938
 H       -3.954122118     7.682931384     0.550491759
 H       -4.803722820     9.957545919     0.541863414
 H       -1.310463452    11.213160541    -1.732603337
 H       -0.481258072     8.925411201    -1.667048602
 H       -3.206334392    14.394481061    -2.214068786
 H       -3.437133482    11.542729409    -3.467280701
 H       -3.143070691    11.348772947    -5.739829714
 H       -2.678998757    12.280545884    -7.957059602
 H       -2.196589297    16.196044540    -6.180998762
 H       -2.781037293    15.268373646    -4.001147064
 H       -1.470479118    16.496476025    -9.664160988
 H       -0.670808318    16.387404312    -8.067898582
 H       -2.391656496    16.889324395    -8.201851954
 H        2.987124373    13.263276292   -10.528389710
 H        2.030694622    14.755575194   -10.767353643
 H        2.684867814    13.852253746   -12.173688865
 H       -1.118025494    11.484156688   -11.849115066
 H       -2.927029895    12.126332145   -13.384037034
 H       -0.822955062    15.754485609   -14.356573782
 H        0.950141173    15.161816323   -12.786075766
 H       -3.894363870    13.557071410   -14.914422877
 H       -2.336382041    16.173126539   -15.606458684
 H       -1.908508633    15.239040640   -18.149904050
 H       -0.978624484    15.845911722   -20.312052845
 H       -4.526753807    18.091164672   -21.258069420
 H       -5.492754565    17.520704746   -19.098842442
 H       -2.821205946    18.024319226   -22.846918759
 H       -0.288539564    16.393224035   -22.132950216
 H       -2.126838386    18.578315386   -24.665689571
 H       -1.197966347    19.181681153   -26.826216238
 H        2.378332791    16.887612320   -25.884812887
 H        1.414206180    16.319914193   -23.725570540
 H       -2.069209665    13.043289255    -9.656567281
 H       -1.364845894    14.450346993   -10.465806363
 H        0.655844640    14.369702612    -8.968805946
 H       -0.068899303    13.098444388    -7.988094384
 H        1.452954062    11.934744683    -9.438182160
 H       -0.157498400    11.593965569   -10.098657201
 H        2.263657152    -1.028513740     0.060140852
 H        2.258434349     0.560663482     0.867911341
 H        2.277656645     0.463828100    -0.912768285
 H        0.568391504    19.498440337   -30.305544558
 H       -0.271648181    20.223549110   -28.911923109
 H       -0.716420037    18.588213188   -29.472132862
 H        3.171263346    20.047003905   -28.956236381
 C        2.339222043    21.069507166   -27.228829024
 C        4.010154287    19.210343812   -27.136092050
 H        2.914670300    16.581118622   -28.224962243
 C        1.076292392    15.829204384   -29.097292733
 C        2.805839067    17.181267862   -30.306963991
 H       -6.046089820    14.153372392   -15.998600901
 C       -6.971835884    14.850391765   -17.834939462
 C       -5.072813277    13.226750653   -17.708779148
 H       -6.257028849    17.600622798   -16.795428323
 C       -6.039901264    17.080600138   -14.698251241
 C       -4.532454302    18.628569810   -15.969281554
 H       -5.779108263    12.109431525     0.662933927
 C       -6.155722055    14.026853793    -0.282237623
 C       -6.395562732    11.798603016    -1.398635629
 H       -3.256110882    14.555750448     0.665079286
 C       -3.150101760    12.965033867     2.141133636
 C       -1.328406384    13.563441868     0.528992391
 H       -0.172467874    -1.928463487    -1.523319791
 C       -2.163632740    -1.060088500    -1.578096811
 C       -0.186624189    -0.214835947    -2.858513067
 H       -1.773469120    -0.912414591     1.450356095
 C       -0.204121290    -2.402335820     1.585846668
 C       -0.256212955    -0.240213946     2.850182110
 H        1.537450113    21.586204727   -27.771832462
 H        3.170832234    21.784996787   -27.155433730
 H        1.988527813    20.899285514   -26.200701833
 H        4.461422240    18.327970508   -27.607092645
 H        3.754616382    18.947132683   -26.100003476
 H        4.808129439    19.964535718   -27.071502207
 H        0.583955387    15.565731457   -28.150143893
 H        1.553914532    14.908269586   -29.461055650
 H        0.288757865    16.075652777   -29.821666868
 H        3.618996368    17.917392850   -30.264915947
 H        2.102943676    17.503330128   -31.086648569
 H        3.256993941    16.245616622   -30.668332100
 H       -7.550963161    15.655427765   -17.365034231
 H       -7.653455703    13.991045232   -17.916009917
 H       -6.744053613    15.156286881   -18.865843644
 H       -4.187019430    12.849053944   -17.180154475
 H       -4.775064376    13.420352899   -18.749627120
 H       -5.789786655    12.394508095   -17.744095388
 H       -6.756475059    16.249190240   -14.712389081
 H       -6.595916080    17.959005142   -14.340535646
 H       -5.288135731    16.858060870   -13.927226489
 H       -4.083079660    18.926410414   -16.927201535
 H       -3.717991101    18.517253153   -15.240594338
 H       -5.132269325    19.486062882   -15.632394969
 H       -5.697471662    14.637462537     0.506035283
 H       -7.233626088    14.006353762    -0.065799434
 H       -6.044813892    14.566847034    -1.233111438
 H       -6.100452879    10.742496738    -1.466473078
 H       -6.309302369    12.229266049    -2.407209967
 H       -7.466439348    11.804155697    -1.151828207
 H       -4.217228995    12.978534364     2.397187027
 H       -2.645689463    13.586117883     2.895489543
 H       -2.782661081    11.940090487     2.294009618
 H       -1.032686852    13.987106172    -0.440442778
 H       -0.847250927    12.579181209     0.622587490
 H       -0.871010392    14.202550883     1.297511716
 H       -2.554697863    -1.634200847    -0.728518601
 H       -2.470010933    -1.604923487    -2.482861347
 H       -2.694507592    -0.097782603    -1.606003590
 H        0.903368737    -0.135493949    -2.958654058
 H       -0.608081886     0.793789202    -2.977306247
 H       -0.532684327    -0.795885188    -3.725451865
 H       -0.513508041    -2.983071423     0.707277626
 H       -0.658136751    -2.897972618     2.456315815
 H        0.881815507    -2.519265687     1.698743202
 H       -0.579852424     0.808772263     2.907171223
 H        0.825310644    -0.261808900     3.040089216
 H       -0.729100242    -0.754616672     3.698856334

