187   

Si        0.000000000     0.000000000     0.000000000
 C        1.865587000     0.000000000     0.000000000
 C       -0.676234663     1.712231518     0.000000000
 C        0.157296324     2.818822866    -0.189857157
 C       -0.367467276     4.111158864    -0.187710805
 C       -1.735731956     4.326508881    -0.004321123
 C       -2.570215956     3.216419065     0.183764622
 C       -2.048641567     1.925776096     0.188077727
 C       -2.328142345     5.660073153     0.005168242
 C       -1.640143910     6.802991005    -0.157569717
 C       -2.230473783     8.137401782    -0.148425377
 C       -1.391786301     9.245083545    -0.330711024
 C       -1.909004644    10.538068946    -0.329679510
 C       -3.282542459    10.750974235    -0.162989850
 C       -4.123296901     9.647187614     0.016193737
 C       -3.599875531     8.355011747     0.028381893
Si       -3.983080385    12.448220388    -0.158843065
 C       -5.711644541    12.415036851    -0.749664528
 C       -6.766250563    12.977298678    -0.146670026
 C       -8.133026306    12.914981048    -0.673507342
 C       -9.162571606    13.541999402     0.044363430
 C      -10.470444775    13.508430864    -0.416660769
 C      -10.774550181    12.818854898    -1.599745976
 C       -9.759302009    12.172733890    -2.311540043
 C       -8.450462749    12.217217675    -1.841830535
 N      -12.157206803    12.839398877    -1.998708409
 C      -12.431359501    13.938817681    -2.950504550
 C      -12.654579131    11.529470392    -2.456222136
 C      -11.983294082    13.683748571    -4.403365126
 C      -11.702596345    14.993555011    -5.164632716
 N      -10.286467157    15.413958416    -5.178112358
 C       -9.758150225    15.815277133    -3.925368497
 C      -10.432375509    16.833319881    -3.221072503
 C       -9.957326558    17.261798967    -1.992860755
 C       -8.783073175    16.724334732    -1.444641010
 C       -8.099968347    15.740407851    -2.162083190
 C       -8.566997087    15.297122114    -3.394535283
 C       -9.436208581    14.518792204    -5.981166271
 C       -8.330254977    17.216522904    -0.143394296
 C       -7.229247319    16.788921215     0.489574518
Si       -6.703351811    17.435437519     2.117521643
 C       -8.149779255    17.966866266     3.120587375
 C       -9.359861522    17.271506020     3.006768463
 C      -10.470049341    17.655030292     3.756288595
 C      -10.393575936    18.730384980     4.646365208
 C       -9.179448665    19.419005783     4.764934491
 C       -8.069306737    19.041956361     4.012368557
 C      -11.530244143    19.166378002     5.450790172
 C      -12.745455447    18.593006822     5.430262174
 C      -13.883500756    19.027139556     6.233638451
 C      -13.813430849    20.105043508     7.119893894
 C      -14.926802920    20.486096617     7.868862581
 C      -16.138495702    19.799872027     7.741774101
 C      -16.211621965    18.719036395     6.852513173
 C      -15.097334661    18.337550666     6.110588793
Si      -17.617507338    20.289497127     8.722529802
 C      -17.377852738    21.946328867     9.545482540
 C      -19.115939041    20.347064666     7.550050137
 C      -17.950068984    18.983167085    10.066509316
 C       -5.827101625    16.034199696     3.060377748
 C       -5.474092367    18.857254838     1.845882012
 C       -3.882367762    13.113118968     1.620479072
 C       -3.012265586    13.620088315    -1.298332835
 C       -0.601823316    -0.929106467    -1.548700197
 C       -0.663049307    -0.896280086     1.542466055
 H        1.235193150     2.713699179    -0.341086331
 H        0.303771760     4.955605714    -0.333181674
 H       -3.638915806     3.362026469     0.329922734
 H       -2.747618331     1.099202680     0.344469231
 H       -3.411062455     5.678902421     0.159262279
 H       -0.557190993     6.783411879    -0.311474835
 H       -0.322859013     9.096770000    -0.471516818
 H       -1.206438320    11.363954275    -0.469679787
 H       -5.204605168     9.756820672     0.150844622
 H       -4.272376309     7.511501763     0.173930348
 H       -5.826160811    11.872588796    -1.704261472
 H       -6.689272125    13.528017111     0.800801860
 H       -8.933998934    14.081409703     0.964500605
 H      -11.270037013    14.009243665     0.128746165
 H       -9.987422312    11.625851782    -3.221366230
 H       -7.669679001    11.703407837    -2.402945257
 H      -13.746594961    11.599988128    -2.597146192
 H      -12.469600616    10.783990785    -1.662723867
 H      -12.205745744    11.159400122    -3.389054783
 H       -9.885417759    14.396580524    -6.981505698
 H       -9.286791863    13.519554878    -5.542563162
 H       -8.448853742    14.993654129    -6.126655243
 H      -11.324451886    17.285374179    -3.646933276
 H      -10.501021691    18.036682511    -1.451091379
 H       -7.186136609    15.300875456    -1.754884396
 H       -8.016452805    14.519470652    -3.914802294
 H       -8.998362378    17.981548068     0.279568472
 H       -6.567728484    16.029930290     0.045090500
 H       -9.478268258    16.418383905     2.329010868
 H      -11.402479417    17.104495747     3.644067026
 H       -9.098947383    20.259066294     5.452219912
 H       -7.149548947    19.617639626     4.145846592
 H      -11.329725812    20.023466830     6.100302403
 H      -12.945192459    17.735531688     4.780820592
 H      -12.883120031    20.658415741     7.234440559
 H      -14.810358890    21.336348119     8.546645628
 H      -17.132542719    18.146277315     6.710866860
 H      -15.173166536    17.494559329     5.426382531
 H      -13.527133818    14.128842721    -2.916397869
 H      -11.939366496    14.857972638    -2.551567327
 H      -11.076018032    13.050233388    -4.410022502
 H      -12.756041447    13.100325667    -4.934461223
 H      -12.024281860    14.889474524    -6.226526016
 H      -12.313496698    15.825468615    -4.748841936
 H        2.263453200    -1.029969952     0.035415398
 H        2.262887509     0.538708476     0.879354859
 H        2.273758788     0.483070804    -0.905087848
 H      -18.285725443    22.252487848    10.095405835
 H      -17.161915380    22.732012536     8.798826532
 H      -16.542483605    21.927781143    10.267191731
 H      -19.222620686    19.303163792     7.133699301
 C      -20.434600538    20.709713669     8.255900835
 C      -18.900525177    21.306074704     6.365252469
 H      -18.821765674    19.377679478    10.664696219
 C      -18.342826878    17.604657757     9.505955369
 C      -16.756620295    18.804328434    11.022865006
 H       -5.035370680    15.633596126     2.359747367
 C       -5.125188038    16.507712776     4.344461040
 C       -6.787109053    14.884521074     3.414004107
 H       -5.151252189    19.196507776     2.872169192
 C       -4.215977261    18.423786530     1.070841103
 C       -6.116887745    20.056494885     1.127005634
 H       -4.488589896    14.067906875     1.633691547
 C       -4.501688750    12.138722791     2.638641472
 C       -2.450716398    13.454560774     2.067319334
 H       -1.959258664    13.648724236    -0.894987273
 C       -2.951122183    13.115006734    -2.750694018
 C       -3.567179679    15.056529095    -1.289735612
 H       -0.087304309    -1.933063109    -1.517971137
 C       -2.120834146    -1.175056468    -1.576835418
 C       -0.193266276    -0.223177271    -2.854763930
 H       -1.787772539    -0.886695299     1.444800602
 C       -0.210423639    -2.363820799     1.642270553
 C       -0.298567202    -0.168607651     2.849214029
 H      -20.694904327    20.021974867     9.070848169
 H      -21.267862936    20.666044654     7.539478606
 H      -20.435481050    21.728777133     8.664887184
 H      -18.002368296    21.072327928     5.775757235
 H      -18.830379892    22.358200923     6.671581337
 H      -19.749170203    21.242407184     5.669390958
 H      -19.240004778    17.629978104     8.874711324
 H      -18.569309495    16.914555308    10.331902051
 H      -17.535604097    17.133380609     8.927762959
 H      -16.462436242    19.730931403    11.532361074
 H      -15.864259507    18.402680634    10.521435497
 H      -17.013061148    18.086488385    11.815191727
 H       -4.349556324    17.262942034     4.164919098
 H       -4.620621489    15.660709029     4.831839437
 H       -5.822479964    16.916035713     5.089478271
 H       -7.305604434    14.460692239     2.543045238
 H       -7.554938250    15.180290213     4.143554136
 H       -6.230044280    14.056064259     3.875525639
 H       -3.656161301    17.618770576     1.564100196
 H       -3.520272895    19.270464893     0.981725148
 H       -4.438234883    18.101628890     0.043468061
 H       -6.993500216    20.461993644     1.650844691
 H       -6.427735372    19.821386304     0.098347383
 H       -5.396042346    20.882473095     1.049704188
 H       -5.555407473    11.904011275     2.433736825
 H       -4.469576841    12.574650804     3.647422306
 H       -3.958842719    11.184542030     2.703383692
 H       -1.971995883    14.223869250     1.448199987
 H       -1.787240039    12.578707477     2.087544512
 H       -2.461989283    13.850856815     3.093393748
 H       -2.535349399    12.102309312    -2.844654606
 H       -2.300720021    13.767880515    -3.350078265
 H       -3.931749028    13.118617513    -3.246850267
 H       -3.569762465    15.517969958    -0.293069325
 H       -4.588753807    15.123350822    -1.691788507
 H       -2.945631872    15.703104652    -1.925461906
 H       -2.488214475    -1.738213783    -0.709694411
 H       -2.387717178    -1.769424252    -2.462960734
 H       -2.702101150    -0.245082084    -1.647570366
 H        0.890581656    -0.081308405    -2.954191994
 H       -0.669498777     0.760543621    -2.975284702
 H       -0.504895675    -0.823905428    -3.721209085
 H       -0.497896379    -2.967917166     0.772074207
 H       -0.677613181    -2.841871243     2.515633941
 H        0.873999304    -2.469135036     1.779000099
 H       -0.641918569     0.875579782     2.874476736
 H        0.780224619    -0.167198484     3.053725682
 H       -0.775045691    -0.668631454     3.704521812

