187   

Si        0.000000000     0.000000000     0.000000000
 C        1.865252850     0.000000000     0.000000000
 C       -0.668120112     1.717742411     0.000000000
 C        0.105030596     2.793010055     0.450621203
 C       -0.409498063     4.089574872     0.446753143
 C       -1.713419568     4.342600484     0.010994002
 C       -2.489110991     3.263056034    -0.432358696
 C       -1.975067539     1.968979349    -0.439343465
 C       -2.291149868     5.683611188    -0.009475489
 C       -1.646407971     6.796526432     0.379876140
 C       -2.208406857     8.143315832     0.365904342
 C       -3.508005224     8.425211604    -0.064237320
 C       -3.994544143     9.732808538    -0.056439105
 C       -3.191190971    10.792378616     0.380955077
 C       -1.886610277    10.510383853     0.807345861
 C       -1.402223817     9.205479370     0.795519133
Si       -3.811560617    12.526885316     0.400303939
 C       -2.788613511    13.648163644     1.424803249
 C       -2.070260901    13.352334620     2.516522357
 C       -1.284854152    14.342843458     3.258579488
 C       -0.560781929    13.946811793     4.392618295
 C        0.192903497    14.856097340     5.118870453
 C        0.318644574    16.193204427     4.684759807
 C       -0.404950317    16.588486780     3.543894298
 C       -1.215911966    15.683372438     2.871699917
 N        1.091214474    17.110102323     5.436315491
 C        2.404193781    16.588524116     5.891159419
 C        1.168078091    18.469651076     4.873371527
 C        3.135148621    17.496262839     6.899414719
 C        2.672247278    17.328378718     8.363227037
 N        1.660688365    18.286865102     8.853051209
 C        0.355263983    18.064539833     8.328642117
 C       -0.255664148    16.838144434     8.655276633
 C       -1.523709579    16.552163021     8.181573042
 C       -2.217701869    17.474699242     7.382747568
 C       -1.621831183    18.702602227     7.094427588
 C       -0.358242798    19.015697389     7.587806898
 C        2.129110714    19.681890821     8.842576501
 C       -3.553207588    17.108287090     6.916453794
 C       -4.338855608    17.877082548     6.149928896
Si       -5.995049533    17.296476933     5.634776009
 C       -5.918812529    15.461622531     5.518131997
 C       -4.812291885    14.878526265     4.887981626
 C       -4.713991123    13.494612928     4.777646620
 C       -5.697955903    12.662712193     5.319433018
 C       -6.797461666    13.247477300     5.958387815
 C       -6.910105864    14.633101587     6.053219228
 C       -5.626471169    11.209634311     5.222081965
 C       -4.623107168    10.535807373     4.633468758
 C       -4.553397135     9.083294137     4.537134078
 C       -5.548846786     8.254186014     5.062039062
 C       -5.450718372     6.869310200     4.952453312
 C       -4.371268549     6.284808031     4.278846977
 C       -3.386564436     7.114624746     3.731228296
 C       -3.479966368     8.498841595     3.854936412
Si       -4.288421248     4.451338176     4.162209743
 C       -4.559507171     3.670849230     5.834282357
 C       -5.630433365     3.855213915     2.947845866
 C       -2.607000758     3.924706636     3.451924971
 C       -7.319498871    17.870781062     6.867004013
 C       -6.390521230    17.999469169     3.911423209
 C       -3.638741666    13.190985816    -1.384968408
 C       -5.660231538    12.679057111     0.827033218
 C       -0.652116333    -0.895666989    -1.549668825
 C       -0.620174562    -0.954700776     1.524641320
 H        1.129411118     2.658984791     0.808466759
 H        0.218482855     4.908140544     0.794162088
 H       -3.505222380     3.434134876    -0.784586039
 H       -2.628670420     1.169285439    -0.798945452
 H       -3.320810978     5.736600236    -0.375045301
 H       -0.616044465     6.739302344     0.744907285
 H       -4.157091695     7.619560340    -0.402001450
 H       -5.020220292     9.890237253    -0.402804598
 H       -1.202346550    11.296216576     1.144237370
 H       -0.383704728     9.012003483     1.126327686
 H       -2.822967733    14.687574717     1.051243762
 H       -2.011209895    12.340977514     2.937785650
 H       -0.610841060    12.910596795     4.729798235
 H        0.684763016    14.533930000     6.032808503
 H       -0.355237203    17.608090279     3.176218467
 H       -1.788141995    16.032822070     2.010962216
 H        1.693230379    19.138648482     5.575682647
 H        0.143425924    18.877423391     4.778702598
 H        1.675726004    18.517241850     3.897393529
 H        3.071520123    19.745956335     9.413013394
 H        1.387821898    20.311706183     9.367075021
 H        2.300042822    20.104133828     7.840798382
 H        0.271959898    16.121482776     9.279244758
 H       -1.985623234    15.595247831     8.427367938
 H       -2.150528133    19.433985838     6.484190075
 H        0.075762139    19.982855378     7.361531150
 H       -3.854603035    16.102606074     7.252826916
 H       -4.034511941    18.875358564     5.814635114
 H       -3.993170684    15.476030532     4.467733185
 H       -3.846721746    13.065279020     4.275247550
 H       -7.574449217    12.617325274     6.384817524
 H       -7.794108578    15.035061189     6.553905870
 H       -6.467564708    10.677521186     5.673795699
 H       -3.778723940    11.066988785     4.182369989
 H       -6.405112441     8.686004023     5.576246922
 H       -6.247357033     6.271113939     5.403562350
 H       -2.531529257     6.715718808     3.176506384
 H       -2.712653446     9.129095010     3.405210158
 H        2.236612847    15.594023333     6.366248258
 H        3.071833752    16.416045976     5.014678993
 H        4.216815874    17.259401169     6.843996207
 H        3.059723204    18.557436274     6.600071662
 H        2.275818334    16.299256218     8.518648854
 H        3.553493394    17.422948208     9.039754191
 H        2.263065795    -1.029568306    -0.044018883
 H        2.276918034     0.477142420     0.906439351
 H        2.259611805     0.546147018    -0.876342404
 H       -4.498281128     2.569961833     5.775176501
 H       -5.546373361     3.931414402     6.253509567
 H       -3.792742729     4.009741691     6.554709720
 H       -5.501539917     2.736979242     2.874482321
 C       -7.063922184     4.135650385     3.433738027
 C       -5.462620551     4.452774969     1.539161534
 H       -2.485100784     4.507076630     2.488596685
 C       -1.418520040     4.271293004     4.366813215
 C       -2.538455174     2.429469157     3.100205977
 H       -8.287765425    17.402539067     6.525481953
 C       -7.034930857    17.392274885     8.302712749
 C       -7.514240285    19.398120423     6.884934706
 H       -6.455346253    19.117852801     4.039801226
 C       -5.284870716    17.701542210     2.881553554
 C       -7.735707852    17.500629034     3.354754018
 H       -4.087670771    14.225091613    -1.374913918
 C       -2.167965050    13.309285091    -1.821878277
 C       -4.397583301    12.349942830    -2.425096949
 H       -6.202576405    12.515947677    -0.150262576
 C       -6.183017046    11.636265289     1.823811139
 C       -6.031925191    14.080414823     1.348214399
 H       -1.775555334    -0.921641793    -1.443346745
 C       -0.318154521    -0.142434409    -2.850043353
 C       -0.159113808    -2.348353925    -1.673793933
 H       -0.241113181    -2.009898059     1.389916861
 C       -0.050944712    -0.417605463     2.849939262
 C       -2.154684476    -1.010969484     1.626348053
 H       -7.285246569     3.699597386     4.415795928
 H       -7.789743418     3.698344252     2.733639841
 H       -7.293948896     5.209405352     3.482077758
 H       -4.486661589     4.223285180     1.089252702
 H       -5.588647991     5.545034833     1.523054267
 H       -6.223466826     4.042361327     0.861430168
 H       -1.378598371     5.331053225     4.652436069
 H       -0.473581813     4.054932367     3.847871197
 H       -1.407806764     3.679880709     5.291618713
 H       -3.302321650     2.118142682     2.375221660
 H       -2.611779535     1.773374181     3.975425255
 H       -1.569859198     2.211864624     2.620485005
 H       -6.924802482    16.302648389     8.389415593
 H       -7.865002218    17.672059604     8.966003634
 H       -6.129690490    17.847778315     8.730766510
 H       -7.811198227    19.810790900     5.912555791
 H       -6.618702226    19.939187152     7.220572106
 H       -8.315820504    19.666128556     7.588272023
 H       -4.290261784    18.045451219     3.197481097
 H       -5.504387322    18.213997630     1.935028084
 H       -5.205554906    16.630664483     2.641352567
 H       -8.591835898    17.749147495     3.994692030
 H       -7.751023627    16.414093652     3.185555032
 H       -7.936141672    17.966136911     2.379385251
 H       -1.564051561    13.944099821    -1.159311876
 H       -2.105735492    13.760221652    -2.822204311
 H       -1.664909022    12.334230656    -1.892937685
 H       -5.477264054    12.290291359    -2.238260353
 H       -4.014684943    11.322252052    -2.505100279
 H       -4.285052259    12.796050357    -3.423882822
 H       -5.896849028    10.602247103     1.594463526
 H       -7.281385200    11.653268606     1.850839781
 H       -5.851660306    11.843956599     2.851506871
 H       -5.761728345    14.893684741     0.664966791
 H       -5.583114546    14.299039487     2.331319465
 H       -7.119234098    14.149099762     1.496057812
 H       -0.686514474     0.893384717    -2.859598197
 H       -0.788386784    -0.643543406    -3.708090047
 H        0.758691386    -0.111263998    -3.063205955
 H       -0.428485570    -2.974848619    -0.813852231
 H        0.927490834    -2.421667337    -1.814224263
 H       -0.614780400    -2.824784210    -2.554178703
 H        1.045626713    -0.435260896     2.891132860
 H       -0.399014113    -1.039042682     3.687760496
 H       -0.376137498     0.608427678     3.074081210
 H       -2.632442520    -1.476295744     0.755054746
 H       -2.610292399    -0.020381460     1.770024675
 H       -2.451783495    -1.614949490     2.496077161

