187   

Si        0.000000000     0.000000000     0.000000000
 C        1.866665079     0.000000000     0.000000000
 C       -0.635224790     1.727332070     0.000000000
 C       -0.022381612     2.674198603     0.828828351
 C       -0.474603181     3.991275342     0.856539717
 C       -1.562419991     4.390439750     0.076198605
 C       -2.182560771     3.439557994    -0.744145947
 C       -1.725844256     2.123641843    -0.782417580
 C       -2.062803992     5.760022374     0.080015612
 C       -1.550955482     6.764915135     0.812015137
 C       -2.065221821     8.130247128     0.803015363
 C       -1.454461708     9.100875150     1.606589665
 C       -1.922643709    10.414114472     1.619886687
 C       -3.014372823    10.785420140     0.828265177
 C       -3.627320229     9.814019413     0.025907029
 C       -3.158921740     8.503289616     0.016270084
Si       -3.698437477    12.496196158     0.784105290
 C       -4.329593817    12.863210151    -0.898446828
 C       -3.837687032    12.337730553    -2.029164155
 C       -4.342365951    12.631356293    -3.372941423
 C       -3.737347101    12.013407106    -4.474391992
 C       -4.173479601    12.253877384    -5.771044567
 C       -5.303583767    13.060303397    -6.005165963
 C       -5.918868106    13.674806021    -4.894995993
 C       -5.422123514    13.487508960    -3.612801617
 N       -5.792188880    13.338408230    -7.309434928
 C       -5.154678208    12.550966781    -8.392073435
 C       -7.267738279    13.367691074    -7.382887107
 C       -5.680606370    12.836478499    -9.809928503
 C       -5.623804842    14.317339049   -10.237976331
 N       -4.278190513    14.907425242   -10.381535627
 C       -3.634130847    15.175165958    -9.142345745
 C       -4.297760105    16.039513797    -8.247655380
 C       -3.726527741    16.341692588    -7.025342880
 C       -2.462298988    15.838543976    -6.679034211
 C       -1.794966401    15.010712222    -7.581134787
 C       -2.365652666    14.683046807    -8.807990831
 C       -3.460599119    14.235590308   -11.404522896
 C       -1.914886867    16.195807153    -5.371453585
 C       -0.724984167    15.787690111    -4.913764400
Si       -0.042684022    16.234001190    -3.281940235
 C        0.528172075    14.713007012    -2.420228640
 C       -0.016751092    13.461154531    -2.725610973
 C        0.426726256    12.315583473    -2.063071282
 C        1.413893797    12.402099118    -1.078102381
 C        1.951889104    13.659581917    -0.768854999
 C        1.513367093    14.803013473    -1.428597677
 C        1.921540841    11.247042623    -0.348728845
 C        1.524614918     9.973975199    -0.512359615
 C        2.072300698     8.855791832     0.250626295
 C        3.063679345     9.032344996     1.220502676
 C        3.568905801     7.947005481     1.934399706
 C        3.112834715     6.651091332     1.673831808
 C        2.128118181     6.469357616     0.693671116
 C        1.614033419     7.557775498    -0.006887801
Si        3.781652672     5.218666702     2.618154413
 C        4.938653996     5.762990362     3.976064782
 C        2.306072717     4.266672981     3.350828604
 C        4.720051569     4.049278641     1.444831930
 C        1.404577086    17.444798330    -3.510397929
 C       -1.378137061    17.067453078    -2.210291013
 C       -5.203157327    12.556275752     1.956067363
 C       -2.432644334    13.745334148     1.442858693
 C       -0.653537332    -0.943795210    -1.516100005
 C       -0.625519363    -0.872764793     1.571824269
 H        0.823350767     2.413933783     1.474649064
 H        0.009577259     4.711606010     1.517150630
 H       -3.032127474     3.727358385    -1.359705414
 H       -2.250314934     1.426924100    -1.441049996
 H       -2.920445835     5.931836377    -0.576356813
 H       -0.690734456     6.601614115     1.469742211
 H       -0.595992098     8.832790330     2.221057930
 H       -1.402246857    11.130404406     2.261247783
 H       -4.487189403    10.044014043    -0.613055839
 H       -3.654644091     7.768919786    -0.615261175
 H       -5.165687036    13.577927007    -0.922178260
 H       -2.993088324    11.632601730    -2.032953534
 H       -2.888302676    11.345450014    -4.319737240
 H       -3.636340931    11.790339361    -6.591903407
 H       -6.769675707    14.334284868    -5.040409024
 H       -5.899741264    14.004533528    -2.780106273
 H       -7.605618328    13.541728762    -8.415219341
 H       -7.643694982    14.219381804    -6.788043313
 H       -7.738688528    12.443046578    -7.013410190
 H       -4.026112441    14.203981880   -12.351200070
 H       -3.156887738    13.209677898   -11.145264036
 H       -2.552486757    14.837397550   -11.589698328
 H       -5.267567240    16.453283130    -8.513580748
 H       -4.264511974    16.982693806    -6.327109286
 H       -0.813992884    14.606984753    -7.328722897
 H       -1.823849737    14.032246571    -9.485635967
 H       -2.585963021    16.847184527    -4.793747504
 H       -0.068957348    15.140986055    -5.517239899
 H       -0.799495557    13.340424467    -3.483099402
 H       -0.010309538    11.350326628    -2.312350110
 H        2.722140120    13.745654792    -0.005389662
 H        1.968846641    15.755627674    -1.145207371
 H        2.696551097    11.488910575     0.386927385
 H        0.748759531     9.711427632    -1.235979942
 H        3.447287723    10.028058606     1.435622011
 H        4.332247799     8.154386424     2.688731536
 H        1.741551081     5.477521189     0.436537940
 H        0.844195692     7.394878994    -0.760965174
 H       -4.064921402    12.807863891    -8.366657329
 H       -5.244974305    11.456531104    -8.199983174
 H       -5.091022464    12.223063829   -10.520440608
 H       -6.721793967    12.475409382    -9.911656255
 H       -6.138102516    14.435560003   -11.219272902
 H       -6.198102455    14.933970995    -9.507179437
 H        2.263157967    -1.029259317    -0.054703159
 H        2.279953788     0.469078351     0.910059321
 H        2.259391699     0.554879064    -0.871848096
 H        5.325593904     4.896387510     4.540936088
 H        4.424634164     6.424070006     4.696636488
 H        5.808467758     6.312552013     3.575583725
 H        1.728062019     3.880634040     2.460627891
 C        2.714220316     3.052648691     4.203271487
 C        1.363056222     5.164809629     4.170773950
 H        5.111223784     3.216652951     2.098127932
 C        3.844825844     3.420601802     0.346633799
 C        5.925093985     4.736761310     0.776390112
 H        1.742093013    17.731094788    -2.472621108
 C        2.599766269    16.804106022    -4.238962291
 C        1.000384878    18.733168463    -4.249154548
 H       -1.662704119    18.015319428    -2.751863284
 C       -2.641980962    16.202750588    -2.059128676
 C       -0.873403284    17.452255556    -0.807913792
 H       -5.589470962    13.614633104     1.908234374
 C       -6.334745496    11.614016217     1.508216449
 C       -4.844822718    12.241870466     3.418703054
 H       -2.216531555    13.411647888     2.501920057
 C       -1.109682022    13.725715884     0.667361113
 C       -2.960254868    15.189300504     1.509656111
 H       -1.778505274    -0.859050548    -1.473305176
 C       -0.180693009    -0.329358850    -2.846517509
 C       -0.296951250    -2.441542716    -1.507057631
 H       -0.180440745    -1.908978676     1.545501528
 C       -0.154974187    -0.184778790     2.866787157
 C       -2.157836902    -1.011008776     1.614450689
 H        3.330759557     2.325729082     3.659306622
 H        1.817261234     2.509344394     4.535712698
 H        3.257040315     3.332658541     5.115358444
 H        0.991792171     6.034743622     3.610310969
 H        1.824701664     5.542147405     5.092384396
 H        0.474874251     4.595571459     4.481887349
 H        2.983960891     2.861364546     0.735543904
 H        4.436169090     2.702210894    -0.239300705
 H        3.466980235     4.160750984    -0.373366607
 H        6.651263558     5.141857698     1.492536274
 H        5.630479762     5.555141735     0.103560358
 H        6.476013489     4.014165077     0.157498152
 H        2.974832746    15.895996312    -3.746375432
 H        3.443895790    17.507250584    -4.270418237
 H        2.374979001    16.545963236    -5.283047078
 H        0.208838733    19.297325100    -3.739560839
 H        0.665708422    18.547889239    -5.280092923
 H        1.862121958    19.411522206    -4.322929307
 H       -3.111893739    15.925024608    -3.013218499
 H       -3.406763685    16.745963466    -1.488065781
 H       -2.454466286    15.260929374    -1.519385995
 H       -0.007451917    18.125136134    -0.822013369
 H       -0.609307243    16.575984987    -0.196885080
 H       -1.663779316    17.981104408    -0.256455662
 H       -6.683113587    11.805353831     0.484292550
 H       -7.210315226    11.738592911     2.160529148
 H       -6.054266247    10.552615216     1.570418346
 H       -4.114682462    12.939658020     3.848233472
 H       -4.453620248    11.223257979     3.553764861
 H       -5.742436686    12.310836581     4.049729744
 H       -0.623502952    12.738805949     0.646201462
 H       -0.383944504    14.411665172     1.125749468
 H       -1.214826553    14.049153670    -0.379979003
 H       -3.857581566    15.298631963     2.130839541
 H       -3.183805406    15.609276569     0.518922692
 H       -2.197631005    15.845946150     1.952965999
 H       -0.422361824     0.737865620    -2.947413099
 H       -0.669369732    -0.836469682    -3.690665709
 H        0.900694909    -0.437967098    -3.005732529
 H       -0.679862042    -2.973893835    -0.626654111
 H        0.783760835    -2.626218810    -1.565898385
 H       -0.740988868    -2.938090561    -2.382185320
 H        0.936816169    -0.110369820     2.949405515
 H       -0.490213609    -0.761682489     3.740762253
 H       -0.572559346     0.825255637     2.988316930
 H       -2.569027274    -1.572651243     0.765969276
 H       -2.673409857    -0.040711020     1.653846642
 H       -2.461993745    -1.556662946     2.519389596

