187   

Si        0.000000000     0.000000000     0.000000000
 C        1.863304748     0.000000000     0.000000000
 C       -0.665434840     1.715505255     0.000000000
 C        0.117867668     2.802912759     0.400523381
 C       -0.405599911     4.096456178     0.393308134
 C       -1.726825450     4.326176048     0.003600330
 C       -2.513689212     3.233990848    -0.387851167
 C       -1.991981108     1.944474540    -0.389412741
 C       -2.332389364     5.651656664    -0.025668067
 C       -1.723994226     6.802536292     0.307595750
 C       -2.381157275     8.105550770     0.259259824
 C       -3.713216065     8.247321092    -0.144638689
 C       -4.318695759     9.500938259    -0.182676352
 C       -3.601956240    10.645266483     0.185349712
 C       -2.267993184    10.509966489     0.588233123
 C       -1.664993197     9.253180193     0.621459532
Si       -4.426610054    12.287067182     0.125480510
 C       -3.167060572    13.602275745     0.245793751
 C       -3.200912141    14.644130603     1.085872197
 C       -2.161846700    15.674218029     1.142149632
 C       -2.300207872    16.723412501     2.063424395
 C       -1.342267570    17.720312900     2.152288628
 C       -0.211878958    17.685999778     1.315063059
 C       -0.071616288    16.645315206     0.388921504
 C       -1.045937473    15.656673232     0.302746085
 N        0.733681037    18.746922111     1.462623038
 C        1.428799495    18.673191989     2.769758944
 C        1.671710796    18.915406623     0.338452406
 C        2.146072327    17.331648000     3.018937354
 C        2.081566672    16.943508937     4.506338704
 N        2.427431755    15.546741124     4.809322350
 C        1.378166769    14.584507739     4.775687978
 C        0.152355346    14.753716931     4.118498949
 C       -0.805401103    13.742796704     4.151149992
 C       -0.580949172    12.556126947     4.857561754
 C        0.641425983    12.404176560     5.527095536
 C        1.606580723    13.396659719     5.495587377
 C        3.666870398    15.090336816     4.153304859
 C       -1.602288438    11.500140640     4.881322138
 C       -1.425999814    10.350840843     5.545131617
Si       -2.507594345     8.891296039     5.741468306
 C       -1.455428528     7.436436394     5.329339938
 C       -0.677829987     7.482915037     4.163075034
 C        0.132179508     6.406949011     3.811953278
 C        0.177530248     5.255127741     4.608950073
 C       -0.605162404     5.209646950     5.765582628
 C       -1.416132374     6.287260482     6.122230185
 C        1.040937924     4.150797104     4.202835852
 C        1.171584162     2.999281993     4.883037249
 C        2.030201131     1.888309757     4.488796565
 C        2.820085709     1.913850250     3.336873836
 C        3.625827575     0.825223441     3.001620190
 C        3.662985127    -0.311836004     3.814529533
 C        2.875502660    -0.337058242     4.973694981
 C        2.073086377     0.750228491     5.306493591
Si        4.719547836    -1.758283932     3.389350070
 C        5.642791931    -1.476184970     1.792365237
 C        5.931942338    -2.023476448     4.831368107
 C        3.663904741    -3.329965635     3.185224312
 C       -3.047783347     8.837790846     7.568390482
 C       -4.077232122     8.899194304     4.680161268
 C       -5.347689281    12.465121862    -1.528241092
 C       -5.687234432    12.423935364     1.544658520
 C       -0.645537654    -0.913718394    -1.540860505
 C       -0.633286874    -0.918582026     1.541155884
 H        1.154133741     2.678764511     0.726772539
 H        0.222577194     4.928241487     0.705139671
 H       -3.546218905     3.392527639    -0.692657476
 H       -2.653565665     1.132805965    -0.704185109
 H       -3.377673054     5.657991640    -0.354401953
 H       -0.684861747     6.814761015     0.643375206
 H       -4.292898433     7.372816205    -0.435099415
 H       -5.360876782     9.546161800    -0.510847646
 H       -1.663398881    11.371325101     0.891907469
 H       -0.626704179     9.166925338     0.937181869
 H       -2.335633987    13.474423693    -0.468604622
 H       -4.016637975    14.810495451     1.801063300
 H       -3.171472894    16.758885055     2.717559605
 H       -1.464081385    18.540661623     2.856992520
 H        0.794454873    16.596555385    -0.264523369
 H       -0.920702250    14.853599554    -0.424920651
 H        2.203171065    19.874438197     0.468850152
 H        1.103481497    18.987527800    -0.605238115
 H        2.419681277    18.113886199     0.243193951
 H        4.464198805    15.831974125     4.326676451
 H        3.557883820    14.930734533     3.068824102
 H        3.996638851    14.139937579     4.607682581
 H       -0.055147439    15.662497566     3.556311663
 H       -1.741224798    13.885273468     3.607571964
 H        0.845639057    11.491974980     6.090459793
 H        2.541581088    13.268301281     6.036830153
 H       -2.503564858    11.731902664     4.304664859
 H       -0.484531057    10.182895663     6.107671256
 H       -0.680200590     8.355225759     3.499718395
 H        0.731625691     6.460881865     2.905706903
 H       -0.592135259     4.325509646     6.399773810
 H       -2.011025376     6.190067382     7.033844373
 H        1.593855031     4.317020412     3.274018735
 H        0.611166911     2.835224243     5.808214134
 H        2.810886378     2.787760474     2.688047601
 H        4.228303879     0.905615572     2.091926603
 H        2.869314527    -1.195400456     5.651588900
 H        1.471015532     0.713081078     6.212407859
 H        2.146993731    19.517985052     2.833230512
 H        0.663807332    18.864008912     3.557276343
 H        1.687616046    16.526110649     2.410387970
 H        3.194347180    17.390347833     2.679796199
 H        2.792048689    17.576347882     5.090233122
 H        1.069990755    17.153261589     4.923779380
 H        2.264257690    -1.027718371    -0.052205605
 H        2.261956634     0.463856231     0.921461686
 H        2.261417414     0.560191150    -0.864152483
 H        6.261221462    -2.352876650     1.529979116
 H        6.320182196    -0.607036692     1.870567860
 H        4.951297674    -1.292225223     0.950710961
 H        5.289991236    -2.207642095     5.741779378
 C        6.850872780    -3.243598530     4.644845423
 C        6.797579497    -0.781591704     5.111484356
 H        4.384764569    -4.125470789     2.836030368
 C        3.006090721    -3.827674614     4.484511637
 C        2.569976143    -3.172939729     2.114057701
 H       -3.612352762     7.869451756     7.695438167
 C       -1.860304151     8.830825688     8.547975089
 C       -3.992146396     9.993573146     7.945867410
 H       -4.566143386     9.901746615     4.855341929
 C       -3.768519579     8.763640792     3.183916736
 C       -5.086962143     7.803142605     5.069332967
 H       -6.132622728    11.654386917    -1.535711860
 C       -6.061293930    13.819756312    -1.678953007
 C       -4.427446824    12.243918711    -2.741880027
 H       -6.135522210    13.455735571     1.454032798
 C       -6.831410139    11.399166337     1.445460224
 C       -5.041322523    12.301860016     2.936589297
 H       -1.770165772    -0.926845848    -1.447923043
 C       -0.290613115    -0.187722316    -2.851229376
 C       -0.165368093    -2.373792864    -1.631035973
 H       -0.171766497    -1.947424579     1.496380668
 C       -0.187953930    -0.250177660     2.851670857
 C       -2.163695615    -1.084133889     1.568370055
 H        6.302397652    -4.185680547     4.516334775
 H        7.484038222    -3.376039538     5.534401918
 H        7.536625356    -3.137121103     3.793841668
 H        6.205702376     0.122692766     5.313283517
 H        7.491739912    -0.548070990     4.293570165
 H        7.416700246    -0.947623909     6.004777281
 H        3.717913677    -3.990075380     5.303319966
 H        2.517978320    -4.797503513     4.308339468
 H        2.219080814    -3.152777496     4.848341219
 H        2.963012253    -2.910979853     1.123274888
 H        1.816940218    -2.417296952     2.385970927
 H        2.024779449    -4.118891163     1.988113166
 H       -1.133749557     8.030230071     8.354108253
 H       -2.220833332     8.676669265     9.574811547
 H       -1.310131673     9.782179063     8.555232186
 H       -4.913799208    10.016106574     7.350190064
 H       -3.515303685    10.980458069     7.859529346
 H       -4.306813537     9.895316850     8.994407967
 H       -3.077686004     9.532185402     2.805935389
 H       -4.687917849     8.863714795     2.588608895
 H       -3.343405094     7.784091270     2.916732752
 H       -5.439420528     7.878935683     6.105129807
 H       -4.692394585     6.787693442     4.921511766
 H       -5.981160808     7.877335659     4.433477596
 H       -6.805537701    14.010079542    -0.895079192
 H       -6.606096681    13.853897240    -2.633510175
 H       -5.366110063    14.671408779    -1.692180367
 H       -3.914433702    11.271747283    -2.727822246
 H       -3.660646029    13.023520591    -2.846660576
 H       -5.016456987    12.264966910    -3.669989753
 H       -7.400878431    11.466603253     0.510145516
 H       -7.556371269    11.566461946     2.255443346
 H       -6.486321683    10.361194977     1.556043976
 H       -4.241278659    13.031877498     3.118363910
 H       -4.623059007    11.300138852     3.120374029
 H       -5.795219137    12.468322032     3.718600006
 H       -0.652216568     0.849889006    -2.883553784
 H       -0.754150705    -0.701007129    -3.705350138
 H        0.788767970    -0.167601230    -3.051346944
 H       -0.450698020    -2.978730051    -0.760593912
 H        0.921744967    -2.459888620    -1.758373070
 H       -0.616534750    -2.863594573    -2.505809605
 H        0.904532332    -0.158636962     2.949888384
 H       -0.520812799    -0.843982166     3.713912502
 H       -0.611402505     0.755764021     2.988047592
 H       -2.558796911    -1.636622634     0.707287614
 H       -2.694580192    -0.123156429     1.626303648
 H       -2.462823400    -1.651885842     2.461357214

