187   

Si        0.000000000     0.000000000     0.000000000
 C        1.865044382     0.000000000     0.000000000
 C       -0.679729802     1.711048075     0.000000000
 C        0.118928493     2.803676389    -0.352164064
 C       -0.405591176     4.096115853    -0.348996986
 C       -1.739162458     4.325139072    -0.000440873
 C       -2.539494267     3.228670949     0.347563207
 C       -2.018607607     1.937706933     0.346594024
 C       -2.330960951     5.658836133     0.017002345
 C       -1.676306949     6.790818332    -0.292715549
 C       -2.268557382     8.124310671    -0.275122759
 C       -3.603169328     8.350984883     0.073986908
 C       -4.129065024     9.642001288     0.077698471
 C       -3.325650750    10.736422191    -0.260010975
 C       -1.988373555    10.513770279    -0.610630585
 C       -1.469384013     9.221440576    -0.621944732
Si       -4.011495195    12.442436877    -0.257589526
 C       -2.645971421    13.653312437    -0.144064615
 C       -2.475223286    14.715523368    -0.941215647
 C       -1.365803052    15.664021833    -0.817556639
 C       -1.297229661    16.740131428    -1.716293065
 C       -0.269298803    17.664991881    -1.642722047
 C        0.747299591    17.518417270    -0.676813305
 C        0.680132734    16.447852021     0.226385247
 C       -0.378471017    15.547386911     0.163274853
 N        1.768441501    18.502477195    -0.658691766
 C        2.576797949    18.584146825    -1.892364134
 C        2.561418358    18.587509451     0.576746258
 C        3.816399567    17.675069442    -1.963713036
 C        3.510061658    16.165672362    -1.969021592
 N        3.019024969    15.619400842    -3.243040831
 C        3.755033840    15.877773898    -4.404132299
 C        5.162472152    15.985709298    -4.333792571
 C        5.903486767    16.241257011    -5.475596213
 C        5.290302335    16.348401576    -6.732070764
 C        3.901004213    16.211251599    -6.803822947
 C        3.138872845    15.975138482    -5.668057356
 C        1.557447047    15.548850664    -3.359830379
 C        6.120661488    16.619538448    -7.906368902
 C        5.642140244    16.741454843    -9.151540223
Si        6.627122787    17.078712670   -10.652509998
 C        5.875645567    18.472703598   -11.588957271
 C        5.003911297    19.363447861   -10.953938512
 C        4.433351373    20.420585297   -11.661970637
 C        4.728353293    20.616518047   -13.013912382
 C        5.606632627    19.726025105   -13.645885978
 C        6.175062633    18.666841278   -12.943293331
 C        4.155333829    21.708168152   -13.794307652
 C        3.302994203    22.628492272   -13.312101746
 C        2.730068889    23.720102012   -14.092693442
 C        3.021548853    23.913919872   -15.445372676
 C        2.451060418    24.971373154   -16.153711875
 C        1.579142940    25.863024082   -15.521205043
 C        1.285114315    25.671027997   -14.164392694
 C        1.851875628    24.611491589   -13.461564441
Si        0.817960102    27.263573188   -16.441760029
 C        1.640778283    27.526386925   -18.095179000
 C       -1.029307224    26.904975266   -16.729035159
 C        0.971020788    28.832207942   -15.374039608
 C        8.424044699    17.520702117   -10.213637668
 C        6.629929832    15.516622163   -11.739625145
 C       -5.032770078    12.702995879    -1.840310193
 C       -5.149490220    12.669522787     1.249723122
 C       -0.618726474    -0.917847180    -1.548457021
 C       -0.652699302    -0.909824807     1.539547620
 H        1.169173629     2.687452257    -0.633714440
 H        0.238118870     4.929891473    -0.623603684
 H       -3.581074063     3.384820292     0.621831773
 H       -2.690795327     1.121954547     0.627125771
 H       -3.384779415     5.687277392     0.309177982
 H       -0.622568832     6.761911302    -0.585523173
 H       -4.245764275     7.515567260     0.345542432
 H       -5.180129039     9.757309217     0.356315978
 H       -1.316370617    11.332828534    -0.887218174
 H       -0.428960388     9.065753961    -0.901694529
 H       -1.942392102    13.439509291     0.678234609
 H       -3.161648872    14.958964562    -1.762714394
 H       -2.070926328    16.859693397    -2.475385242
 H       -0.247714169    18.518043903    -2.318340355
 H        1.444318848    16.316012072     0.986615301
 H       -0.420719018    14.730020125     0.884948586
 H        3.201853307    19.485677118     0.528005223
 H        3.201137553    17.712816965     0.771534402
 H        1.877512655    18.722420056     1.434218059
 H        1.108697947    15.282985132    -2.384344858
 H        1.285953735    14.740622083    -4.063849982
 H        1.095941704    16.491072746    -3.698049155
 H        5.671444887    15.866151052    -3.382454851
 H        6.986167914    16.343036047    -5.394303361
 H        3.397841637    16.290055204    -7.769279700
 H        2.062650557    15.881243871    -5.768770624
 H        7.187508108    16.718679019    -7.667237609
 H        4.564885983    16.626538271    -9.358566745
 H        4.740247766    19.262049404    -9.895950489
 H        3.753773836    21.097599790   -11.147671634
 H        5.848991586    19.861103971   -14.698093995
 H        6.851363568    18.003094679   -13.488785057
 H        4.471847357    21.737524906   -14.841109991
 H        2.986276307    22.599614712   -12.265435446
 H        3.700010632    23.236305828   -15.960329623
 H        2.716723813    25.071062503   -17.209746906
 H        0.611014547    26.336496152   -13.617653864
 H        1.610271329    24.477769888   -12.408849351
 H        1.923812867    18.387991987    -2.772072362
 H        2.902973346    19.648833497    -1.981454054
 H        4.388290022    17.941574828    -2.878191880
 H        4.498227850    17.899637504    -1.122091100
 H        4.437080959    15.601606453    -1.702872142
 H        2.773646831    15.922721619    -1.168979719
 H        2.263297165    -1.029323458     0.047570656
 H        2.260560989     0.549612736     0.873609565
 H        2.275025825     0.473071638    -0.909494745
 H        1.204291079    28.392174621   -18.624408824
 H        1.529934655    26.645486245   -18.751511042
 H        2.721488620    27.722862321   -17.973185575
 H       -1.414514712    27.768266864   -17.345091950
 C       -1.261065969    25.608605393   -17.526837163
 C       -1.855604877    26.839494666   -15.432168593
 H        0.412779738    28.611050882   -14.418124594
 C        2.430438392    29.152410956   -15.003316589
 C        0.331620453    30.076334078   -16.015821037
 H        8.796900733    16.683652199    -9.554859178
 C        9.349997584    17.608665929   -11.439961297
 C        8.526909128    18.837524081    -9.422010545
 H        7.273592435    15.760419190   -12.633603160
 C        7.239561804    14.293404124   -11.032702589
 C        5.224796995    15.152616627   -12.251410155
 H       -5.341467974    13.788428234    -1.835621355
 C       -4.212101182    12.441610726    -3.116694322
 C       -6.309993759    11.845925383    -1.890758489
 H       -5.987610991    11.924863109     1.120466826
 C       -4.437760326    12.357193479     2.578100802
 C       -5.769729927    14.075292280     1.329668183
 H       -0.132066881    -1.935303152    -1.515905373
 C       -2.144441715    -1.119823543    -1.573161794
 C       -0.191457992    -0.225683738    -2.855682355
 H       -1.777221952    -0.918525036     1.440737454
 C       -0.178124785    -2.370777182     1.636019943
 C       -0.300702997    -0.180522252     2.848792561
 H       -0.770810264    25.606621500   -18.508841631
 H       -2.334811453    25.471839531   -17.719657016
 H       -0.928752251    24.709911974   -16.987354454
 H       -1.810371216    27.761576483   -14.839018782
 H       -1.561999189    26.003801140   -14.781360904
 H       -2.917354781    26.681377813   -15.671510578
 H        2.939173746    28.324138935   -14.489404166
 H        2.465536458    30.008527993   -14.314557673
 H        3.043158607    29.428891040   -15.871569413
 H       -0.734726679    29.948977926   -16.242842081
 H        0.835486396    30.388491925   -16.940177990
 H        0.398815862    30.930527604   -15.326316917
 H        9.412131828    16.671284402   -12.007114196
 H       10.376109671    17.840797834   -11.119495586
 H        9.061247316    18.406787236   -12.138227625
 H        7.922228872    18.847763253    -8.504884648
 H        8.234143465    19.714860776   -10.016804723
 H        9.566170048    19.010279989    -9.109464603
 H        8.277355730    14.448497519   -10.710953244
 H        7.254565534    13.432217434   -11.715724522
 H        6.662215761    13.977054185   -10.151850191
 H        4.739567933    15.966644950   -12.808109843
 H        4.541881200    14.847331716   -11.446657892
 H        5.285012111    14.301034214   -12.943852563
 H       -3.296293527    13.044447433    -3.183577345
 H       -4.809425839    12.686587000    -4.006187520
 H       -3.918746548    11.387099380    -3.224859961
 H       -7.002728657    12.046276028    -1.063524165
 H       -6.101648415    10.766644146    -1.902408249
 H       -6.867950542    12.057919513    -2.814606784
 H       -4.002402784    11.348398889     2.612568022
 H       -5.154296083    12.409850140     3.410306307
 H       -3.638338471    13.072554865     2.814746612
 H       -6.367241537    14.338847221     0.447449299
 H       -5.020135663    14.866854647     1.472322729
 H       -6.450121243    14.138089144     2.191097570
 H       -2.522215401    -1.692289224    -0.716624426
 H       -2.433560539    -1.685747191    -2.470790661
 H       -2.700030719    -0.172390444    -1.617716095
 H        0.895810943    -0.113696474    -2.955397037
 H       -0.641525577     0.770038739    -2.978334957
 H       -0.519275741    -0.819593442    -3.720930639
 H       -0.454163933    -2.976382009     0.763167531
 H       -0.640476215    -2.858588338     2.506505874
 H        0.907376368    -2.460173712     1.775525641
 H       -0.658728893     0.858634437     2.876435198
 H        0.777841354    -0.163898847     3.054428382
 H       -0.770425304    -0.689874022     3.702252411

