187   

Si        0.000000000     0.000000000     0.000000000
 C        1.865079913     0.000000000     0.000000000
 C       -0.679521261     1.710543572     0.000000000
 C        0.124290100     2.808776109    -0.320672318
 C       -0.404480154     4.099451034    -0.316523600
 C       -1.749197230     4.317908374    -0.007749018
 C       -2.555515872     3.215782648     0.307171883
 C       -2.028448613     1.927928432     0.312669405
 C       -2.347617691     5.648035177     0.009654093
 C       -1.691434483     6.788764992    -0.262429165
 C       -2.304894594     8.112020838    -0.240666031
 C       -1.517278667     9.230023120    -0.542795048
 C       -2.065213467    10.511190440    -0.533017280
 C       -3.408237956    10.702938231    -0.191735223
 C       -4.195163274     9.586659282     0.119146513
 C       -3.649715889     8.305702096     0.089146594
Si       -4.183112572    12.370963427    -0.162435511
 C       -5.470830371    12.451470254     1.132008926
 C       -5.439502354    11.740598575     2.267137891
 C       -6.473362026    11.808064341     3.301741118
 C       -6.328873114    11.013430279     4.449318910
 C       -7.279871198    11.042170887     5.455830494
 C       -8.432361471    11.836458171     5.313604255
 C       -8.587713508    12.623071316     4.166211382
 C       -7.606282611    12.613844777     3.179656640
 N       -9.369814016    11.817079819     6.391340798
 C      -10.042963766    10.506091708     6.522344423
 C      -10.318078349    12.944421283     6.423694465
 C      -10.905686610    10.114790852     5.304591641
 C      -11.101215400     8.590321898     5.194163156
 N      -10.306789730     7.940685782     4.132433165
 C       -8.907369050     7.904348218     4.300458569
 C       -8.367292425     7.703065553     5.588207092
 C       -6.995458805     7.664340798     5.773187855
 C       -6.115516780     7.704681263     4.682030223
 C       -6.652025818     7.854128736     3.401117786
 C       -8.023815385     7.960801307     3.206099266
 C      -10.795392930     8.278006972     2.783516128
 C       -4.678110931     7.660265759     4.947122811
 C       -3.723097982     7.690835645     4.008107141
Si       -1.940303386     7.631149526     4.422245188
 C       -1.658684825     8.405119057     6.070408119
 C       -2.397649928     9.545378636     6.418144540
 C       -2.212465397    10.157448569     7.653885329
 C       -1.278182741     9.654133381     8.569164510
 C       -0.537468328     8.522983836     8.216890574
 C       -0.722764467     7.905733101     6.979585288
 C       -1.119667762    10.330279560     9.852403989
 C       -0.264565363     9.951481056    10.817403580
 C       -0.107106700    10.628678134    12.100313565
 C       -0.848238645    11.759819372    12.451830341
 C       -0.665428026    12.376027125    13.689725505
 C        0.270035277    11.877017369    14.601492741
 C        1.015259341    10.742972712    14.251068414
 C        0.825977014    10.126372350    13.017506734
Si        0.522713361    12.679113318    16.238822976
 C       -0.270838263    14.366047607    16.305785228
 C       -0.237886808    11.589221678    17.601541451
 C        2.394965006    12.820854393    16.552927871
 C       -1.349183868     5.824096772     4.472379947
 C       -0.983639027     8.569814095     3.080905984
 C       -2.877358855    13.711847148     0.168365220
 C       -4.998787434    12.696877025    -1.848375420
 C       -0.619775359    -0.927884454    -1.541012927
 C       -0.654028527    -0.892515693     1.549738680
 H        1.181881217     2.698197138    -0.575094372
 H        0.243444630     4.938654978    -0.562769900
 H       -3.605802652     3.365285394     0.552381309
 H       -2.703692448     1.106813442     0.570268067
 H       -3.411326893     5.665749019     0.269262977
 H       -0.630025028     6.776051187    -0.522786050
 H       -0.466958501     9.100006779    -0.795037078
 H       -1.407496747    11.345262774    -0.790235377
 H       -5.252879930     9.679274733     0.391584250
 H       -4.282406776     7.452652184     0.329182708
 H       -6.288562540    13.156173793     0.919524329
 H       -4.629089644    11.037219109     2.511029721
 H       -5.454204570    10.365785984     4.557570902
 H       -7.145169962    10.443299297     6.355928363
 H       -9.468733494    13.242769473     4.033438717
 H       -7.739265338    13.240667522     2.297933032
 H      -10.846644715    12.928244562     7.392754439
 H      -11.067814116    12.936724138     5.618818498
 H       -9.755812885    13.893649835     6.376610297
 H      -11.897861021     8.284089329     2.773271274
 H      -10.473021922     7.490803859     2.077631189
 H      -10.440407627     9.254700568     2.415320156
 H       -9.024816081     7.583608589     6.444638332
 H       -6.597734441     7.562367957     6.784259088
 H       -5.989087949     7.900187744     2.535486330
 H       -8.396330220     8.105171933     2.197294030
 H       -4.446670107     7.603713197     6.021837645
 H       -3.961337881     7.736811306     2.935788841
 H       -3.138048871     9.986063189     5.740566916
 H       -2.799940408    11.037990847     7.908770615
 H        0.195512933     8.112995358     8.908866957
 H       -0.112300218     7.025680479     6.760698006
 H       -1.764993700    11.202833656     9.992028837
 H        0.380676461     9.079374462    10.678213563
 H       -1.579383785    12.170945771    11.758050416
 H       -1.275820647    13.256514639    13.908527594
 H        1.760967737    10.308963694    14.923090361
 H        1.412487917     9.245363300    12.764078441
 H       -9.247605578     9.743670864     6.693891863
 H      -10.660804468    10.526525943     7.445538749
 H      -11.885584152    10.619335550     5.361662978
 H      -10.432592350    10.499380277     4.378266143
 H      -10.876644010     8.088693502     6.161897836
 H      -12.173085867     8.359492514     4.992894886
 H        2.262952175    -1.029635749     0.044450695
 H        2.260867156     0.546596638     0.875318187
 H        2.275345837     0.475395563    -0.908048656
 H       -0.075335582    14.859903551    17.274313979
 H       -1.365829120    14.308876215    16.176794109
 H        0.128686526    15.022897843    15.511734424
 H       -0.094394094    12.160032710    18.564221645
 C       -1.747585748    11.362178830    17.401537448
 C        0.450363207    10.220731170    17.752680228
 H        2.789869631    11.763308844    16.550774209
 C        3.121627835    13.596910189    15.439579137
 C        2.743596769    13.450678304    17.913316573
 H       -0.265941887     5.865824340     4.786865325
 C       -2.119287913     4.984732010     5.508587486
 C       -1.416632681     5.112583048     3.113639645
 H       -1.262633848     8.071277694     2.103876026
 C       -1.396504303    10.049246361     2.991247630
 C        0.543457272     8.482018572     3.238094957
 H       -2.111558338    13.612411097    -0.654189639
 C       -3.449255324    15.139851887     0.113478762
 C       -2.162613313    13.513172632     1.516659081
 H       -5.458636250    13.724787018    -1.779511461
 C       -3.995458550    12.698946638    -3.014602986
 C       -6.122752796    11.691018811    -2.156339417
 H       -0.133607269    -1.945416840    -1.500835049
 C       -2.145427084    -1.129805769    -1.566163936
 C       -0.191047109    -0.245529190    -2.853051391
 H       -1.777178000    -0.921768675     1.439305856
 C       -0.156259890    -2.342932626     1.677985619
 C       -0.328882888    -0.132318337     2.848557842
 H       -2.328351345    12.292848044    17.367329062
 H       -2.154872509    10.776799044    18.238281786
 H       -1.976319925    10.793526841    16.488614722
 H        1.519260878    10.294487711    17.989565149
 H        0.344738789     9.589007981    16.859391146
 H       -0.008475706     9.659113685    18.579453401
 H        2.963643359    13.169569387    14.438862246
 H        4.206950101    13.578301072    15.613301991
 H        2.833655780    14.655611187    15.395861136
 H        2.316519384    12.907421654    18.766111376
 H        2.428521710    14.499522606    17.992980227
 H        3.833426412    13.445659502    18.060697323
 H       -2.069092993     5.391527963     6.527417403
 H       -1.698481431     3.970736604     5.559758742
 H       -3.182065681     4.865123789     5.252831761
 H       -0.831538529     5.609619625     2.327596247
 H       -2.443077717     4.998003957     2.738047562
 H       -1.007645449     4.094848424     3.195704639
 H       -2.472969685    10.189249597     2.815762122
 H       -0.888208013    10.524807241     2.138984185
 H       -1.120727423    10.627642674     3.883129682
 H        0.923805617     7.452579650     3.212968657
 H        0.906983412     8.951354418     4.162675665
 H        1.036688571     9.011995336     2.410612604
 H       -3.907125527    15.390185928    -0.851764149
 H       -2.644083405    15.872700937     0.268834783
 H       -4.193604335    15.332722005     0.898784405
 H       -1.674537986    12.533029890     1.613105691
 H       -2.836033005    13.632707720     2.378414826
 H       -1.370233712    14.264919100     1.639023361
 H       -3.209055549    13.457711798    -2.911617408
 H       -4.514896462    12.921923262    -3.957909102
 H       -3.504774928    11.725801495    -3.159141026
 H       -6.912598493    11.672002526    -1.392965627
 H       -5.753656896    10.662568128    -2.278496720
 H       -6.615025732    11.954206594    -3.103232378
 H       -2.525087124    -1.692653603    -0.704034942
 H       -2.432914286    -1.705925210    -2.457888915
 H       -2.700787191    -0.182952242    -1.622805994
 H        0.896325698    -0.134106514    -2.952467029
 H       -0.641163936     0.749039656    -2.983895720
 H       -0.517758010    -0.846104946    -3.714161448
 H       -0.409825670    -2.968331334     0.812322115
 H       -0.622295132    -2.823621006     2.550587176
 H        0.928567834    -2.411292297     1.833763424
 H       -0.708949956     0.899427630     2.853914768
 H        0.747064059    -0.089906447     3.063513494
 H       -0.795956258    -0.636188564     3.706880649

