187   

Si        0.000000000     0.000000000     0.000000000
 C        1.864899762     0.000000000     0.000000000
 C       -0.681493288     1.708212632     0.000000000
 C        0.143499730     2.827150410    -0.146892611
 C       -0.398486170     4.112729965    -0.143530202
 C       -1.776235372     4.303539131    -0.015960985
 C       -2.602758253     3.180326695     0.123351173
 C       -2.063637555     1.898216048     0.134681337
 C       -2.395444981     5.622443696    -0.006323544
 C       -1.733044073     6.786113397    -0.116214582
 C       -2.377558725     8.094614843    -0.103696151
 C       -3.760676168     8.241475383     0.026098763
 C       -4.343658623     9.507259051     0.034242434
 C       -3.549368498    10.654575526    -0.047334269
 C       -2.161142536    10.511235662    -0.167157049
 C       -1.584838856     9.244887965    -0.204119379
Si       -4.287279895    12.338495628    -0.039032720
 C       -3.631644613    13.189557133     1.439318532
 C       -3.067070363    14.399785335     1.530686408
 C       -2.580464310    14.964630775     2.793267039
 C       -2.002820030    16.238273100     2.799130273
 C       -1.528461326    16.811483833     3.974035310
 C       -1.656196732    16.131439270     5.197450839
 C       -2.222737189    14.840859491     5.190273009
 C       -2.641839085    14.261380649     4.003467392
 N       -1.194867794    16.656699545     6.434415925
 C       -0.548246131    17.986505931     6.345378744
 C       -2.196040919    16.586814486     7.520488248
 C       -0.017633661    18.500802868     7.693265732
 C        1.042137622    17.581632660     8.332056284
 N        2.327332127    17.470846589     7.617808895
 C        2.351484650    16.474421874     6.600879849
 C        2.218573336    15.136474784     7.019734055
 C        2.232981688    14.112720427     6.087218822
 C        2.379625197    14.388251918     4.719194421
 C        2.532013079    15.716002188     4.314194896
 C        2.539711702    16.753587411     5.241119449
 C        2.921856699    18.766479715     7.255252849
 C        2.388760003    13.270718665     3.772176268
 C        2.522898008    13.428625798     2.449324922
Si        2.542609202    12.084944838     1.216788869
 C        1.548692754    10.616087801     1.698325955
 C        0.345312143    10.742749089     2.400437378
 C       -0.389662914     9.609611035     2.753585955
 C        0.067446098     8.331249317     2.422593393
 C        1.272943195     8.207716798     1.718400646
 C        2.001508316     9.335170674     1.355252533
 C       -0.646668967     7.106095587     2.758746145
 C       -1.809951152     7.030249547     3.426110327
 C       -2.479809443     5.770005918     3.734504221
 C       -1.954831074     4.531224761     3.353910267
 C       -2.619417841     3.346219797     3.663952378
 C       -3.832350098     3.373738316     4.360507190
 C       -4.365805377     4.613450222     4.734953890
 C       -3.700746619     5.796262456     4.419477813
Si       -4.699512044     1.800653717     4.763450757
 C       -3.473978660     0.418583284     5.027632132
 C       -5.766893329     2.040641930     6.320375319
 C       -5.853113154     1.345188735     3.319012309
 C        1.801371305    12.802179144    -0.385922561
 C        4.348456834    11.589471294     0.880171277
 C       -3.959319324    13.232515199    -1.681838917
 C       -6.181262381    12.238582811     0.176398555
 C       -0.614866869    -0.950761062    -1.528266297
 C       -0.662455343    -0.856836555     1.567883694
 H        1.226665825     2.736938583    -0.260419447
 H        0.263518519     4.969485471    -0.251755801
 H       -3.678607077     3.313634681     0.228178842
 H       -2.755936628     1.059203315     0.252797582
 H       -3.483993620     5.612642190     0.108963571
 H       -0.644994240     6.809311669    -0.222475686
 H       -4.397797139     7.363753009     0.117423152
 H       -5.432589838     9.554576309     0.112836920
 H       -1.487805059    11.374232845    -0.220361911
 H       -0.501910974     9.150689478    -0.290835241
 H       -3.751219673    12.561660586     2.342786964
 H       -2.929430672    15.061787849     0.668929514
 H       -1.915914171    16.797127779     1.867369544
 H       -1.074092421    17.795322798     3.924358013
 H       -2.281052234    14.272676316     6.116233028
 H       -3.038912131    13.245122289     4.022732828
 H       -1.666109680    16.555242100     8.487988850
 H       -2.794176133    15.663383290     7.458011573
 H       -2.893788789    17.439130490     7.518832495
 H        2.992166598    19.392213445     8.161328214
 H        2.369900453    19.326969870     6.485223285
 H        3.952441122    18.597238497     6.894189772
 H        2.103350507    14.914856452     8.078236846
 H        2.122362229    13.081071710     6.421921563
 H        2.646939174    15.954578247     3.256527922
 H        2.669118960    17.773970711     4.896166063
 H        2.255590254    12.290040527     4.247432553
 H        2.657622254    14.431200103     2.010878598
 H       -0.055702742    11.720469883     2.690677615
 H       -1.330200057     9.729404851     3.288359910
 H        1.646453502     7.220658814     1.453601761
 H        2.929558997     9.172969860     0.800390837
 H       -0.152557355     6.188830112     2.416640330
 H       -2.323040347     7.931082609     3.769194198
 H       -1.017205554     4.479254873     2.800022096
 H       -2.157623700     2.410490347     3.333663761
 H       -5.311487861     4.697452130     5.275931099
 H       -4.134888059     6.749413755     4.713542008
 H        0.311354828    17.878245281     5.638729400
 H       -1.238662192    18.750642892     5.919704256
 H        0.403061987    19.513710277     7.540445284
 H       -0.849452009    18.639908314     8.409096903
 H        1.279806756    17.952954070     9.356166728
 H        0.613255141    16.558395741     8.452491347
 H        2.263072996    -1.029233964     0.047331924
 H        2.263495134     0.549374945     0.871923594
 H        2.272430647     0.471991940    -0.911194929
 H       -3.984160342    -0.518516828     5.310549607
 H       -2.766326400     0.671838532     5.838035804
 H       -2.882382816     0.216501335     4.116241912
 H       -6.499603563     2.862233792     6.071043436
 C       -6.579514364     0.791746889     6.707696823
 C       -4.942214078     2.494932458     7.538678324
 H       -6.428440516     0.436709589     3.658309423
 C       -6.864856803     2.456648866     2.986109335
 C       -5.086762545     0.972727762     2.037060647
 H        2.584483504    13.497390477    -0.804380249
 C        1.495136908    11.733376105    -1.448424295
 C        0.530826454    13.626597619    -0.116064054
 H        4.317868128    10.825075343     0.051613297
 C        5.222863925    12.764242246     0.404604167
 C        5.015963267    10.943749238     2.108068329
 H       -4.482972803    14.229246194    -1.593734852
 C       -2.474008255    13.508587817    -1.967224890
 C       -4.558375301    12.481438741    -2.885955312
 H       -6.541910214    11.505186751    -0.601025388
 C       -6.600382797    11.716554247     1.563491537
 C       -6.893166334    13.580537665    -0.073198755
 H       -0.091212057    -1.949879829    -1.492225494
 C       -2.131890707    -1.211384475    -1.537224191
 C       -0.227250127    -0.256694150    -2.847041586
 H       -1.788041622    -0.802127048     1.496304730
 C       -0.267999755    -2.340126127     1.672550633
 C       -0.236397902    -0.131998476     2.857492111
 H       -7.257907885     0.451215828     5.915086632
 H       -7.213179151     1.012201912     7.579130889
 H       -5.947403015    -0.058659559     6.995519431
 H       -4.359436651     3.408853280     7.354608032
 H       -4.243521782     1.725047433     7.892646063
 H       -5.608795375     2.719735592     8.383253854
 H       -7.517575034     2.718503717     3.828299336
 H       -7.530174303     2.130391254     2.174213117
 H       -6.382446526     3.381611787     2.637457973
 H       -4.416912754     0.112693556     2.167728547
 H       -4.489803406     1.809402021     1.644509506
 H       -5.793518167     0.695110331     1.242429409
 H        2.371745715    11.139671113    -1.736038568
 H        1.131942359    12.210012556    -2.369996715
 H        0.709123714    11.030912493    -1.133892533
 H        0.692191201    14.468056688     0.572234103
 H       -0.293000267    13.026398637     0.299262702
 H        0.162901992    14.063889928    -1.054664204
 H        4.863688959    13.229399835    -0.521767297
 H        6.242514862    12.411131187     0.193320919
 H        5.323202673    13.555250030     1.161223787
 H        4.478101144    10.065099472     2.489825941
 H        5.133396045    11.646299331     2.946362305
 H        6.026958766    10.598225046     1.851251078
 H       -1.985615658    14.096777813    -1.178426008
 H       -2.369823833    14.088378681    -2.895143755
 H       -1.888924765    12.589503611    -2.115325906
 H       -5.641924295    12.324385892    -2.810539752
 H       -4.091499250    11.499579814    -3.051975677
 H       -4.396717002    13.057464240    -3.808259061
 H       -6.128011823    10.765165000     1.842624469
 H       -7.684946560    11.539826550     1.586346150
 H       -6.389025617    12.437365680     2.366065006
 H       -6.752214510    13.964915264    -1.091438619
 H       -6.583130680    14.367916853     0.628023345
 H       -7.978020209    13.460995299     0.060122348
 H       -2.487775459    -1.753324933    -0.652027708
 H       -2.399367299    -1.832728391    -2.404386767
 H       -2.721644766    -0.288683194    -1.631021257
 H        0.854186760    -0.107118427    -2.960806968
 H       -0.712724058     0.721897475    -2.972994691
 H       -0.544022388    -0.869577154    -3.703049986
 H       -0.600245484    -2.940723050     0.816038103
 H       -0.731853732    -2.790919268     2.561953651
 H        0.814172262    -2.489208874     1.783112264
 H       -0.533185522     0.926835068     2.878750512
 H        0.846228825    -0.173619270     3.035552449
 H       -0.709121341    -0.605182035     3.730394626

