187   

Si        0.000000000     0.000000000     0.000000000
 C        1.864099659     0.000000000     0.000000000
 C       -0.663646579     1.715293904     0.000000000
 C       -0.028888629     2.699553302     0.766566637
 C       -0.515162567     4.005380471     0.780870484
 C       -1.629301779     4.360042607     0.015486826
 C       -2.262321487     3.373598952    -0.751022570
 C       -1.791891540     2.063108185    -0.751894875
 C       -2.170561539     5.713582773     0.001159810
 C       -1.670511017     6.743458056     0.704549773
 C       -2.217912489     8.094796674     0.684745558
 C       -3.333418209     8.433970007    -0.086396207
 C       -3.831181554     9.735275933    -0.082460547
 C       -3.243597383    10.718047763     0.722043776
 C       -2.133679325    10.378736833     1.505360488
 C       -1.625209350     9.082279860     1.481560991
Si       -3.906598530    12.430531155     0.720602757
 C       -3.618654982    13.329985692     2.283216914
 C       -3.532826296    12.776793072     3.500637388
 C       -3.300014847    13.548524578     4.723339604
 C       -3.224855601    12.883799672     5.954430732
 C       -3.005526148    13.580225303     7.134345728
 C       -2.805051079    14.975604565     7.114035241
 C       -2.878975729    15.644236509     5.875328863
 C       -3.142867387    14.938226988     4.711061699
 N       -2.580284611    15.711547603     8.290975685
 C       -2.257186220    14.980198382     9.523667480
 C       -1.825555158    16.968656276     8.146201960
 C       -0.868877114    14.318426890     9.506336220
 C       -0.600502253    13.527964462    10.797902843
 N       -1.230296347    12.203321700    10.862240686
 C       -0.839355610    11.214566852     9.953646997
 C        0.351344783    11.339786430     9.205920762
 C        0.723514210    10.350135954     8.309809300
 C       -0.034067008     9.180767028     8.160184708
 C       -1.199615236     9.046401127     8.920582973
 C       -1.603729604    10.038519720     9.802309611
 C       -2.631810359    12.203635009    11.304386889
 C        0.405287179     8.168570851     7.199078884
 C       -0.238465428     7.015850954     6.973337417
Si        0.272681093     5.727318212     5.786409972
 C       -1.123324650     5.229631593     4.701972822
 C       -2.178730667     6.107428144     4.428628249
 C       -3.227877879     5.708668307     3.602858176
 C       -3.252068194     4.423418774     3.047465966
 C       -2.195536154     3.550766576     3.325022778
 C       -1.137736693     3.949233323     4.138041665
 C       -4.364422170     4.035089748     2.186428583
 C       -4.465656121     2.830641327     1.599296998
 C       -5.557088394     2.402942098     0.734142896
 C       -6.639857045     3.226829751     0.419041861
 C       -7.661042186     2.770810122    -0.414732773
 C       -7.615948169     1.481737494    -0.954252417
 C       -6.527236425     0.655348527    -0.643689004
 C       -5.509955901     1.112984357     0.187858918
Si       -8.952055991     0.860771650    -2.055858040
 C      -10.440434868     1.984926299    -2.038047916
 C       -8.291237494     0.748023697    -3.838138453
 C       -9.438316796    -0.886194464    -1.477170195
 C        1.681734840     6.336089346     4.659382583
 C        0.890849408     4.215841672     6.764597018
 C       -3.059458908    13.400780707    -0.680876296
 C       -5.781710220    12.393376483     0.390985836
 C       -0.666530770    -0.957739724    -1.502498312
 C       -0.643527470    -0.850038525     1.580525224
 H        0.854894793     2.484992979     1.373355907
 H       -0.017846282     4.752806918     1.398245768
 H       -3.140002787     3.627521787    -1.343643595
 H       -2.335002917     1.334552896    -1.359525476
 H       -3.046107196     5.847956991    -0.641057461
 H       -0.801470530     6.606060141     1.354681395
 H       -3.818825546     7.682211576    -0.706126196
 H       -4.694795964     9.944042548    -0.719415669
 H       -1.636488509    11.108888050     2.152469055
 H       -0.760855911     8.835428336     2.096482967
 H       -3.534131883    14.421016622     2.151424544
 H       -3.621335572    11.695853474     3.674222677
 H       -3.342175349    11.799013279     5.993060874
 H       -2.969621693    13.027022980     8.068183449
 H       -2.749875810    16.720135662     5.820636318
 H       -3.212867447    15.484926387     3.769343438
 H       -1.563875804    17.381150864     9.133722917
 H       -2.467528561    17.717272784     7.646155383
 H       -0.897359378    16.851202640     7.563021136
 H       -2.856703878    13.102638478    11.900191816
 H       -2.799773899    11.331332526    11.964831091
 H       -3.349486025    12.151764287    10.467082314
 H        0.983138003    12.215388020     9.313446635
 H        1.631536490    10.483635983     7.720295903
 H       -1.810434422     8.147170637     8.821876171
 H       -2.514348724     9.892521289    10.373280492
 H        1.324209299     8.449656895     6.667820926
 H       -1.156393574     6.759653074     7.527776537
 H       -2.212432002     7.120126798     4.842336082
 H       -4.034131796     6.407273043     3.386258162
 H       -2.185330337     2.549536384     2.894519717
 H       -0.338299726     3.223962632     4.311762885
 H       -5.129947490     4.800921872     2.041714211
 H       -3.682675117     2.077705159     1.745188198
 H       -6.695659928     4.234583701     0.826644031
 H       -8.486149622     3.457036874    -0.622556674
 H       -6.440324103    -0.361399968    -1.036498703
 H       -4.669030189     0.459426086     0.416369663
 H       -2.335887950    15.692638889    10.376414228
 H       -3.054393311    14.220706465     9.694036693
 H       -0.780134419    13.652399392     8.622311833
 H       -0.086281101    15.086901559     9.369535833
 H        0.500078355    13.386355165    10.929268606
 H       -0.925833637    14.115995054    11.686153194
 H        2.263058030    -1.029480855    -0.013910968
 H        2.277031684     0.507049907     0.889256668
 H        2.257001574     0.520986815    -0.892439577
 H      -11.249171453     1.584819397    -2.675251160
 H      -10.193999838     2.995354665    -2.408493973
 H      -10.845274220     2.089777144    -1.015008044
 H       -9.169123287     0.426061439    -4.469297705
 C       -7.794004856     2.105831314    -4.367920931
 C       -7.168949532    -0.290049165    -4.017745033
 H       -8.502433307    -1.511641219    -1.562307579
 C       -9.890707716    -0.915154740    -0.005992831
 C      -10.523879624    -1.541906240    -2.349043494
 H        2.495093995     6.702798080     5.348687086
 C        2.271764884     5.224711646     3.772419043
 C        1.247420661     7.507349298     3.759014979
 H        1.253207651     3.471522509     5.997868502
 C        2.068777772     4.547031532     7.697620917
 C       -0.226732533     3.546527792     7.584102835
 H       -3.513337200    14.433142893    -0.666007071
 C       -1.543207891    13.540694814    -0.454997373
 C       -3.303620981    12.791453975    -2.072354817
 H       -5.912547705    11.929116237    -0.628558312
 C       -6.534319256    11.523383528     1.413783296
 C       -6.419987067    13.793450690     0.359653523
 H       -1.792434811    -0.899721604    -1.436898767
 C       -0.237384502    -0.332528382    -2.842365459
 C       -0.275147687    -2.446808551    -1.501338665
 H       -0.223454007    -1.895735631     1.559572544
 C       -0.154295742    -0.163743584     2.869316512
 C       -2.179342229    -0.949278700     1.629025601
 H       -8.564277239     2.887642187    -4.354377630
 H       -7.475108135     2.007550332    -5.415471816
 H       -6.923151826     2.486780874    -3.815041957
 H       -7.465144161    -1.306693148    -3.730207650
 H       -6.257093215    -0.032292890    -3.460477977
 H       -6.875476743    -0.345089411    -5.076249428
 H       -9.139613447    -0.508959917     0.686764289
 H      -10.073038551    -1.951455174     0.312232328
 H      -10.828011070    -0.369463541     0.165673097
 H      -10.242104911    -1.622288817    -3.406856355
 H      -11.487816196    -1.018366687    -2.298474693
 H      -10.713655394    -2.568358934    -2.002825595
 H        2.720194647     4.404022230     4.346282014
 H        3.076599707     5.632836860     3.144044937
 H        1.534851737     4.788760823     3.082412604
 H        0.843519936     8.363542251     4.317129322
 H        0.492271989     7.209787584     3.016778136
 H        2.108304293     7.886944156     3.191049126
 H        2.942906718     4.948695094     7.169394820
 H        2.410704096     3.636904885     8.210576627
 H        1.800477141     5.262830495     8.488108018
 H       -1.090434676     3.242528818     6.975520955
 H       -0.601582762     4.183644915     8.396795982
 H        0.151194823     2.630875593     8.060366019
 H       -1.286619622    14.022724865     0.498276937
 H       -1.099569148    14.162618952    -1.245123000
 H       -1.016017381    12.576269835    -0.490978027
 H       -4.364622602    12.749409428    -2.349186790
 H       -2.890343402    11.777503364    -2.174137215
 H       -2.809522831    13.401308378    -2.842439525
 H       -6.174787690    10.485556798     1.451978369
 H       -7.600637400    11.471038146     1.153683297
 H       -6.485202481    11.927429059     2.435513833
 H       -5.985619082    14.453385249    -0.401845797
 H       -6.359774827    14.311429920     1.327329675
 H       -7.490275203    13.712860919     0.121291834
 H       -0.512028441     0.727711740    -2.938121851
 H       -0.727610430    -0.853989000    -3.676625144
 H        0.843039188    -0.409559551    -3.023333699
 H       -0.624163798    -2.987528451    -0.612272854
 H        0.807888641    -2.606338594    -1.585763211
 H       -0.727438506    -2.954309181    -2.365729216
 H        0.939065836    -0.119510593     2.950748735
 H       -0.503849369    -0.723597197     3.748680694
 H       -0.541292038     0.859898694     2.981413190
 H       -2.606324749    -1.506525022     0.785618358
 H       -2.668017613     0.034998622     1.665705864
 H       -2.493290900    -1.482409202     2.538210822

