187   

Si        0.000000000     0.000000000     0.000000000
 C        1.865215890     0.000000000     0.000000000
 C       -0.678145245     1.711346232     0.000000000
 C        0.122601981     2.803781506    -0.348108300
 C       -0.400753674     4.096628264    -0.344991126
 C       -1.735390362     4.326553248    -0.001003849
 C       -2.537762734     3.230280755     0.342855846
 C       -2.017978923     1.938857572     0.342322950
 C       -2.325720367     5.660868042     0.016095926
 C       -1.668364366     6.792367640    -0.289710090
 C       -2.258321323     8.126910122    -0.272738451
 C       -3.593778818     8.355796138     0.071589706
 C       -4.116931562     9.648000222     0.074721167
 C       -3.310115063    10.741397779    -0.258573674
 C       -1.971973107    10.516214870    -0.603953851
 C       -1.455454579     9.222874285    -0.614531787
Si       -3.993636926    12.449414358    -0.256578455
 C       -2.630183454    13.659937752    -0.140799028
 C       -2.453763961    14.724245461    -0.934680468
 C       -1.343464672    15.669151080    -0.803987662
 C       -1.261428688    16.748937699    -1.694352171
 C       -0.230343442    17.670811319    -1.612534049
 C        0.739828484    17.570499184    -0.591737105
 C        0.657518196    16.485500273     0.303173108
 C       -0.355106781    15.544280727     0.176508958
 N        1.783455291    18.508203925    -0.513427636
 C        1.506823070    19.873933893    -0.991979451
 C        2.610300638    18.484772053     0.705849348
 C        0.413281880    20.590088050    -0.179453882
 C        0.411045549    22.113147039    -0.389851248
 N        1.657465058    22.820856642    -0.014273950
 C        2.335013526    22.293214931     1.109541443
 C        1.608297677    22.151217594     2.310582688
 C        2.223508717    21.639938184     3.440399599
 C        3.580961839    21.282474042     3.426226029
 C        4.302050541    21.448616613     2.242298375
 C        3.697486453    21.956303691     1.097144228
 C        2.490315977    23.187888509    -1.171126004
 C        4.181558243    20.746287272     4.649742990
 C        5.463421989    20.372955107     4.752734863
Si        6.265696348    19.698728421     6.250440485
 C        7.827367392    20.608432464     6.587558402
 C        8.029397547    21.888743533     6.057996913
 C        9.212652073    22.577630477     6.313614408
 C       10.215184379    22.010017890     7.110751949
 C       10.006769353    20.734055495     7.642719970
 C        8.825687985    20.039616718     7.385871810
 C       11.437296494    22.770833297     7.349900280
 C       12.473377497    22.340797023     8.089831029
 C       13.695853946    23.100663795     8.329638013
 C       13.907570193    24.375970166     7.799670732
 C       15.092288329    25.066725056     8.054877718
 C       16.095173821    24.492288451     8.842091886
 C       15.885508956    23.212693722     9.374138499
 C       14.699990637    22.528152424     9.122222620
Si       17.664354608    25.390669019     9.188266663
 C       17.867471901    26.872020390     8.072998308
 C       17.669867356    25.981907308    10.997639083
 C       19.111701218    24.178777661     8.943073270
 C        5.125300288    19.836112306     7.765623457
 C        6.650731567    17.860973945     5.940281001
 C       -5.016891854    12.711207463    -1.837993254
 C       -5.132397014    12.673136661     1.251799043
 C       -0.618181804    -0.918747550    -1.548155544
 C       -0.653720432    -0.908775631     1.539921982
 H        1.173622134     2.686888211    -0.626376186
 H        0.244669904     4.930161933    -0.616202337
 H       -3.580152256     3.387120179     0.613656791
 H       -2.691897802     1.123483590     0.619683942
 H       -3.380482048     5.690574010     0.304456538
 H       -0.613558801     6.762460870    -0.578557846
 H       -4.238912445     7.521530532     0.340007633
 H       -5.168773239     9.764954763     0.349371993
 H       -1.297642121    11.335042452    -0.876270338
 H       -0.414211991     9.065467711    -0.889644380
 H       -1.929204797    13.445178164     0.683358836
 H       -3.136318196    14.971307004    -1.758209878
 H       -2.014369086    16.862349324    -2.474773750
 H       -0.178117803    18.473640261    -2.341518120
 H        1.388750829    16.363856553     1.096223908
 H       -0.383535797    14.703247269     0.871587644
 H        3.345130652    19.309675268     0.687980015
 H        3.183960156    17.540879500     0.734388292
 H        2.026195298    18.581644509     1.636002436
 H        1.878253757    23.776185929    -1.877796150
 H        2.924046420    22.333269925    -1.712900007
 H        3.309343676    23.850382648    -0.836981500
 H        0.563378769    22.451195036     2.344125141
 H        1.644932045    21.525862780     4.357823746
 H        5.360044153    21.183180681     2.206658860
 H        4.290695118    22.071235299     0.195273763
 H        3.473715113    20.682580618     5.486408567
 H        6.147190761    20.444340657     3.889899859
 H        7.278521896    22.383215186     5.433188772
 H        9.355656311    23.569928614     5.889819827
 H       10.769893077    20.270767737     8.265316443
 H        8.719784993    19.044935007     7.827583133
 H       11.464721785    23.754619828     6.872205575
 H       12.445907160    21.356960416     8.567400399
 H       13.144336155    24.843691013     7.180417216
 H       15.199849401    26.061513677     7.613746232
 H       16.634286886    22.713649033     9.995856318
 H       14.554850790    21.535987483     9.545350288
 H        2.462920293    20.444978767    -0.949775382
 H        1.231205065    19.828006350    -2.068819781
 H       -0.580998605    20.179432525    -0.443563140
 H        0.539969933    20.356801335     0.897533519
 H        0.161220858    22.348194094    -1.447128111
 H       -0.404028253    22.564065451     0.227344038
 H        2.263007647    -1.029178934     0.053704579
 H        2.260708063     0.554605568     0.870441588
 H        2.275461607     0.467631566    -0.912116082
 H       18.830498798    27.380655400     8.258189628
 H       17.064638384    27.614019115     8.227639921
 H       17.850050652    26.572415639     7.009348947
 H       18.624105802    26.571041805    11.122647248
 C       16.487247076    26.915012974    11.316326936
 C       17.681297629    24.833613365    12.022450026
 H       18.944327778    23.343482134     9.683826139
 C       19.129955001    23.560363905     7.533447778
 C       20.489117507    24.799503521     9.236444232
 H        4.152668218    19.347841622     7.467186692
 C        5.665750474    19.100193575     9.004669141
 C        4.832275942    21.298277067     8.148600522
 H        7.110315777    17.473505258     6.895204104
 C        5.393105831    17.025585949     5.643016093
 C        7.669706993    17.655536466     4.805350143
 H       -5.322613484    13.797444445    -1.832813590
 C       -4.199296053    12.447677436    -3.115849509
 C       -6.296735409    11.857571975    -1.886564650
 H       -5.969339377    11.927444757     1.123216795
 C       -4.419365381    12.362066265     2.579867508
 C       -5.754681242    14.078150280     1.332577072
 H       -0.131027548    -1.935907392    -1.515055620
 C       -2.143826331    -1.121029231    -1.573453170
 C       -0.190637263    -0.226955703    -2.855571400
 H       -1.778188574    -0.916625788     1.440681617
 C       -0.180340418    -2.370051472     1.637380563
 C       -0.301617057    -0.179055948     2.848882745
 H       16.450788502    27.807406774    10.678366725
 H       16.563461518    27.280086554    12.350636483
 H       15.513015688    26.411071861    11.239242574
 H       18.541727589    24.161178340    11.914993819
 H       16.768328841    24.222555150    11.988205218
 H       17.737402019    25.241698629    13.042284375
 H       18.192716842    23.048368513     7.272187688
 H       19.923054969    22.802224420     7.464407185
 H       19.335841535    24.295664943     6.744356561
 H       20.576457644    25.204083666    10.253103936
 H       20.756458067    25.599804186     8.533706590
 H       21.273112957    24.033981604     9.142277554
 H        5.811708700    18.024453403     8.844356974
 H        4.951356683    19.190961631     9.836045086
 H        6.614010629    19.518288756     9.371312285
 H        4.405540552    21.891722625     7.328587710
 H        5.724955101    21.830883168     8.507941523
 H        4.101704995    21.334614532     8.968958303
 H        4.650501478    17.054129940     6.450844953
 H        5.665668765    15.968189266     5.514627865
 H        4.887478602    17.328171136     4.714796694
 H        8.614755815    18.193798462     4.965570141
 H        7.281047340    17.951962277     3.821567680
 H        7.933877133    16.591391253     4.724544433
 H       -3.281907909    13.048507071    -3.183110448
 H       -4.796729119    12.694846333    -4.004410473
 H       -3.908182475    11.392752339    -3.224296925
 H       -6.987186127    12.059453810    -1.057922143
 H       -6.090971877    10.777892463    -1.898690758
 H       -6.855658593    12.071249992    -2.809254464
 H       -3.982804797    11.353834788     2.613878265
 H       -5.134701353    12.414539584     3.412808211
 H       -3.620015855    13.078366178     2.814457056
 H       -6.354497824    14.339807582     0.451458720
 H       -5.005007926    14.870386830     1.471752511
 H       -6.432446700    14.140993867     2.195743474
 H       -2.521826417    -1.693282521    -0.716880013
 H       -2.432558096    -1.687136365    -2.471052085
 H       -2.699454439    -0.173605433    -1.618350044
 H        0.896644029    -0.114986728    -2.955022763
 H       -0.640670600     0.768779823    -2.978416831
 H       -0.518287920    -0.821000442    -3.720739045
 H       -0.456975172    -2.975962579     0.764955302
 H       -0.642954179    -2.856878431     2.508264041
 H        0.905100829    -2.460170942     1.776780075
 H       -0.658918600     0.860403788     2.875774210
 H        0.776881908    -0.163012347     3.054738613
 H       -0.771932713    -0.687538294     3.702510951

