187   

Si        0.000000000     0.000000000     0.000000000
 C        1.865113047     0.000000000     0.000000000
 C       -0.664396981     1.717602476     0.000000000
 C        0.056506862     2.752385937    -0.606412304
 C       -0.439835925     4.055329529    -0.610553921
 C       -1.670417705     4.352726205    -0.018682858
 C       -2.394913129     3.314351839     0.580881133
 C       -1.901007832     2.012414802     0.588040600
 C       -2.228870582     5.700314607     0.000964578
 C       -1.637855092     6.781844832    -0.534655377
 C       -2.200472259     8.127539822    -0.512409722
 C       -3.431975601     8.416033948     0.081777990
 C       -3.934923879     9.716365595     0.081677367
 C       -3.210495479    10.758007396    -0.506068836
 C       -1.975492549    10.473218033    -1.103010782
 C       -1.480515436     9.171789418    -1.108875196
Si       -3.852010109    12.480513846    -0.519090809
 C       -2.487753947    13.588094472    -0.014513622
 C       -2.090166625    14.694686557    -0.654680972
 C       -0.985894650    15.545944203    -0.200810410
 C       -0.654892753    16.683679235    -0.951176059
 C        0.382697784    17.516315968    -0.557637299
 C        1.148615689    17.192965499     0.573382683
 C        0.862598530    16.030392230     1.294782843
 C       -0.178308365    15.202330096     0.887351774
 N        2.201452389    18.112620192     0.905690685
 C        1.708858852    19.208044239     1.775090360
 C        3.418366457    17.463206102     1.425557700
 C        1.414248315    18.809882525     3.234942752
 C        0.106687559    19.405665037     3.791565721
 N       -1.126732545    18.648611452     3.490215190
 C       -1.113343489    17.271652457     3.791259532
 C       -0.353973888    16.787572647     4.878114232
 C       -0.337858969    15.434175849     5.177848480
 C       -1.096570704    14.517064490     4.438472782
 C       -1.888037981    15.006013770     3.395692582
 C       -1.928313679    16.360065099     3.093019488
 C       -1.725991821    19.019935793     2.195091900
 C       -1.045264996    13.098406742     4.794803099
 C       -1.728157574    12.138216772     4.157187498
Si       -1.676317223    10.361754648     4.588197560
 C       -1.368546755    10.061493723     6.373998778
 C       -1.775378263    11.000812826     7.328131904
 C       -1.544553453    10.778465950     8.684856336
 C       -0.915593029     9.608491036     9.119668881
 C       -0.517869984     8.664686350     8.163600830
 C       -0.743510690     8.885536243     6.807311518
 C       -0.653580097     9.333420378    10.528552820
 C       -0.982876703    10.152536422    11.541762621
 C       -0.721292525     9.878335335    12.950807658
 C       -0.089300873     8.711194622    13.387382681
 C        0.140988606     8.489745197    14.745158091
 C       -0.251018684     9.436359165    15.696812188
 C       -0.884610431    10.608276692    15.261508508
 C       -1.118283126    10.823719291    13.906291657
Si        0.045433789     9.159599384    17.492296363
 C        1.215233017     7.735852241    17.783352676
 C        0.761430408    10.760982337    18.231899481
 C       -1.607187849     8.779373208    18.357036562
 C       -3.303465616     9.542588716     4.048293217
 C       -0.266860334     9.592839705     3.560199544
 C       -4.458240458    12.884969183    -2.277596089
 C       -5.325475888    12.726929634     0.657640505
 C       -0.633211239    -0.899038301    -1.553302298
 C       -0.647301489    -0.927948983     1.531077669
 H        1.024222836     2.581022039    -1.086342995
 H        0.143313251     4.843303046    -1.083811353
 H       -3.356144269     3.523814861     1.046693806
 H       -2.512161138     1.243836330     1.069205376
 H       -3.199629061     5.785101694     0.498591235
 H       -0.667845827     6.697968453    -1.032789191
 H       -4.010944094     7.623620697     0.552393232
 H       -4.906524767     9.878422876     0.556938796
 H       -1.364214345    11.251792123    -1.571506006
 H       -0.521367187     8.966212904    -1.580228508
 H       -1.979843613    13.252881235     0.908131369
 H       -2.568687315    15.058967441    -1.571851373
 H       -1.230404283    16.931680066    -1.842006686
 H        0.631047331    18.407844233    -1.131268910
 H        1.453774081    15.757604051     2.165978115
 H       -0.366069232    14.281074646     1.444399106
 H        4.225108367    18.215437789     1.460319454
 H        3.732120083    16.673331773     0.720570936
 H        3.317685598    17.015549504     2.425499538
 H       -1.638681139    20.105630968     2.031695522
 H       -2.806152091    18.786699086     2.219060132
 H       -1.269255213    18.497974417     1.334932504
 H        0.224181902    17.473669860     5.489553213
 H        0.270998192    15.082720262     6.011771135
 H       -2.513232352    14.322058070     2.817557136
 H       -2.571039013    16.694318577     2.283641555
 H       -0.392500346    12.892223047     5.654091551
 H       -2.363018030    12.370726244     3.287639630
 H       -2.279539215    11.931842603     7.047385436
 H       -1.864328407    11.527487248     9.406966443
 H       -0.027809996     7.746531391     8.481486322
 H       -0.412920145     8.112609443     6.107533344
 H       -0.152134416     8.380897656    10.723213682
 H       -1.485182406    11.104593869    11.346663113
 H        0.229028601     7.960301303    12.666607796
 H        0.638485297     7.557266999    15.025628159
 H       -1.212480807    11.383580769    15.959758535
 H       -1.613700117    11.738902448    13.587607806
 H        2.478223590    20.011542505     1.745720819
 H        0.800543023    19.633471830     1.293957140
 H        1.377011057    17.703939953     3.320709223
 H        2.256847421    19.118489754     3.880490822
 H        0.176484943    19.476977992     4.904096070
 H       -0.022599514    20.451669083     3.437162600
 H        2.263566860    -1.028510783     0.060524004
 H        2.258449290     0.560914765     0.867649208
 H        2.277367433     0.463306243    -0.913154083
 H        1.424035758     7.605845068    18.860239416
 H        2.182108336     7.907975369    17.276484487
 H        0.802206593     6.783461974    17.407528812
 H       -0.020134103    11.557238720    18.060057564
 C        1.021490605    10.675393510    19.746386620
 C        2.053399795    11.209574976    17.525211308
 H       -1.345546612     8.566685225    19.433819384
 C       -2.602426248     9.953168484    18.331757601
 C       -2.301471391     7.532523281    17.779051163
 H       -3.436136264     9.812431042     2.958069223
 C       -3.275632571     8.007414174     4.148251573
 C       -4.516839447    10.074065187     4.831192991
 H       -0.333474948     8.478303286     3.718130704
 C       -0.408843776     9.872293561     2.055715508
 C        1.123156935    10.062704472     4.024797045
 H       -4.750280576    13.974814056    -2.260734859
 C       -3.367663829    12.700724164    -3.348018322
 C       -5.694504699    12.066244857    -2.689797741
 H       -6.109679315    11.987998596     0.321121670
 C       -5.001624087    12.438550931     2.132039484
 C       -5.931197403    14.139767391     0.559102609
 H       -0.171048258    -1.927765601    -1.524564004
 C       -2.163623228    -1.062268134    -1.576699837
 C       -0.189010784    -0.212713022    -2.857910491
 H       -1.773121409    -0.916602458     1.448713148
 C       -0.197384249    -2.398851182     1.591493783
 C       -0.262255075    -0.233420316     2.849969083
 H        0.123664693    10.430228413    20.328336029
 H        1.374959177    11.646828382    20.121793839
 H        1.798887713     9.945038249    20.007008012
 H        1.929627003    11.346744697    16.441310351
 H        2.889469708    10.514135422    17.676973943
 H        2.382668506    12.180610548    17.921688023
 H       -2.212485983    10.866117291    18.799255051
 H       -3.510948968     9.686770820    18.891427660
 H       -2.934257830    10.208746757    17.315492550
 H       -1.687554785     6.624562555    17.836913481
 H       -2.606827709     7.661317505    16.730557552
 H       -3.220797310     7.317854048    18.342569837
 H       -2.507285232     7.546019341     3.512921835
 H       -4.237204027     7.591134943     3.815827239
 H       -3.123923235     7.645330385     5.174382279
 H       -4.629999915    11.165539924     4.777388465
 H       -4.489053561     9.799297515     5.895381853
 H       -5.444737609     9.644610465     4.428706903
 H       -1.360855283     9.519702112     1.631471784
 H        0.379514325     9.347432640     1.498030798
 H       -0.308858571    10.937351369     1.803871813
 H        1.327241144     9.846090631     5.082022694
 H        1.282721107    11.139705410     3.870532292
 H        1.905298072     9.548605605     3.448866362
 H       -2.452387271    13.274068744    -3.148071868
 H       -3.737737863    13.042161496    -4.325248346
 H       -3.077649606    11.648519002    -3.481847985
 H       -6.561965225    12.225114033    -2.036567679
 H       -5.499307263    10.985108852    -2.729602629
 H       -6.016899578    12.354782591    -3.700997065
 H       -4.567856069    11.442799993     2.299105593
 H       -5.921093833    12.474392435     2.734287122
 H       -4.322248564    13.182239283     2.572697222
 H       -6.296495123    14.391018050    -0.444365838
 H       -5.230719435    14.929533902     0.867235572
 H       -6.800398246    14.223247167     1.227479881
 H       -2.553271173    -1.637466028    -0.727194562
 H       -2.469844855    -1.607173207    -2.481540810
 H       -2.696011331    -0.100804664    -1.603926507
 H        0.900784242    -0.130912825    -2.958633747
 H       -0.612584289     0.795102749    -2.975826331
 H       -0.534225765    -0.793784878    -3.725206965
 H       -0.500644799    -2.982908667     0.712977495
 H       -0.652564807    -2.894760582     2.461238030
 H        0.888628492    -2.510631891     1.708947282
 H       -0.592219224     0.813716500     2.903786193
 H        0.819000385    -0.248324289     3.042025744
 H       -0.733758936    -0.748454062     3.699102784

