187   

Si        0.000000000     0.000000000     0.000000000
 C        1.865242089     0.000000000     0.000000000
 C       -0.682165243     1.709699024     0.000000000
 C        0.135982162     2.817093860     0.244172508
 C       -0.395518242     4.106689255     0.240886754
 C       -1.755139935     4.318303404    -0.000919896
 C       -2.574481016     3.207400365    -0.243041563
 C       -2.046628684     1.919421033    -0.243028970
 C       -2.355916855     5.647900629    -0.014317348
 C       -1.686862753     6.793665637     0.199166521
 C       -2.291245302     8.121927093     0.184984402
 C       -3.652654433     8.326547296    -0.057689923
 C       -4.189836293     9.613080725    -0.062284456
 C       -3.370897469    10.724517930     0.162556621
 C       -2.006161564    10.524276928     0.404380408
 C       -1.475687421     9.236748453     0.420065808
Si       -4.068153765    12.423104403     0.158626159
 C       -2.769257538    13.641113361    -0.252069151
 C       -2.493105992    14.757053900     0.433621665
 C       -1.438239989    15.704739198     0.062661410
 C       -1.244462786    16.841324560     0.862694833
 C       -0.259467426    17.766645178     0.552752768
 C        0.565020956    17.559567705    -0.563955705
 C        0.390751321    16.422189018    -1.358203377
 C       -0.600773197    15.500232758    -1.036676034
 N        1.556558983    18.573168809    -0.804226410
 C        1.038796555    19.632733166    -1.698602613
 C        2.862504281    18.036792696    -1.227132566
 C        0.987408958    19.261251333    -3.193846311
 C       -0.083107119    20.065413602    -3.955968361
 N       -1.372691617    19.368483020    -4.135461975
 C       -2.126792137    19.162743160    -2.952953892
 C       -2.437481965    20.288342424    -2.163586744
 C       -3.171963967    20.140787640    -0.998652632
 C       -3.646811717    18.883213228    -0.597882379
 C       -3.364420855    17.776158543    -1.400964325
 C       -2.629401830    17.908697255    -2.573621735
 C       -1.273740488    18.215736142    -5.046850895
 C       -4.417693830    18.786025771     0.642272895
 C       -4.923855607    17.645297500     1.130043762
Si       -5.884336885    17.550288551     2.683124275
 C       -6.806886320    19.107365186     3.008401067
 C       -7.315573923    19.846019606     1.931518027
 C       -8.017010340    21.027538697     2.154071489
 C       -8.238815999    21.495244957     3.456222289
 C       -7.737998325    20.752261184     4.528600083
 C       -7.032030899    19.569816922     4.308484960
 C       -8.979644563    22.739058564     3.638139998
 C       -9.257795492    23.297898811     4.828211377
 C       -9.998854552    24.541966638     5.008563967
 C      -10.499011341    25.283790115     3.935404547
 C      -11.202365227    26.468396664     4.153448416
 C      -11.426296676    26.933992364     5.452869280
 C      -10.926269110    26.191201936     6.531081827
 C      -10.220123968    25.012164618     6.310155658
Si      -12.352714469    28.495511444     5.757067135
 C      -13.239449134    29.076612569     4.222259619
 C      -13.601302034    28.185320438     7.160105790
 C      -11.140406850    29.852914026     6.315003117
 C       -7.094341090    16.091872733     2.540173809
 C       -4.682564671    17.221281493     4.123603147
 C       -5.449688146    12.600024537    -1.136013965
 C       -4.802992339    12.771342372     1.878585781
 C       -0.657708795    -0.900317987    -1.542977193
 C       -0.607677128    -0.927655937     1.547267682
 H        1.206947169     2.714395767     0.439795148
 H        0.263212244     4.951951161     0.431663659
 H       -3.636436891     3.350149372    -0.434037691
 H       -2.734299627     1.092135344    -0.440291936
 H       -3.430943269     5.661358459    -0.217066423
 H       -0.612038626     6.782001853     0.402286209
 H       -4.307998644     7.477625081    -0.243333141
 H       -5.262096970     9.710471088    -0.252810608
 H       -1.321030319    11.358692601     0.587483351
 H       -0.413583855     9.098336203     0.614017467
 H       -2.205973495    13.379815961    -1.164185957
 H       -3.036691353    15.048904492     1.342701821
 H       -1.886806441    17.014093910     1.727880700
 H       -0.114395953    18.656096244     1.165228103
 H        1.029982926    16.248325386    -2.218319316
 H       -0.722178836    14.614732484    -1.660613471
 H        3.590204640    18.865728825    -1.252846792
 H        2.867835489    17.538526046    -2.207121750
 H        3.209781091    17.313797052    -0.467777847
 H       -0.787376641    18.537146550    -5.983625461
 H       -2.292108548    17.877282186    -5.311096496
 H       -0.711799608    17.360639740    -4.639069176
 H       -2.103439360    21.274770833    -2.474692049
 H       -3.390653409    21.019454750    -0.390857675
 H       -3.718589321    16.784026322    -1.110240435
 H       -2.419732429    17.021811061    -3.163537380
 H       -4.549466377    19.756193778     1.143011348
 H       -4.772673703    16.684367033     0.613775348
 H       -7.176795047    19.527033908     0.892527494
 H       -8.398859224    21.590929964     1.304557089
 H       -7.897046402    21.092327605     5.550157367
 H       -6.666432386    19.032732276     5.187746859
 H       -9.311643121    23.213180163     2.709683720
 H       -8.926519916    22.824098528     5.756849678
 H      -10.342275834    24.941168016     2.914192332
 H      -11.568206293    27.005514287     3.273991612
 H      -11.071581861    26.505771609     7.568434536
 H       -9.838464893    24.449755667     7.160172433
 H        0.020316107    19.911057216    -1.336400842
 H        1.682178161    20.527597051    -1.547399517
 H        1.978015156    19.425330463    -3.653277111
 H        0.784447481    18.178465448    -3.302473737
 H       -0.275321532    21.038181535    -3.450876472
 H        0.292600978    20.326278500    -4.972436470
 H        2.262915294    -1.029989576    -0.037116392
 H        2.274407586     0.481959879     0.905250941
 H        2.261735698     0.540222392    -0.878861078
 H      -13.827233392    29.989942773     4.423932043
 H      -13.940738510    28.305543427     3.854702106
 H      -12.534629588    29.308716398     3.404781610
 H      -12.987492792    27.891956566     8.060992062
 C      -14.424283612    29.430355248     7.535998259
 C      -14.562472534    27.024276410     6.847279877
 H      -11.761767717    30.787783507     6.429714686
 C      -10.466200900    29.560514896     7.667432077
 C      -10.045931672    30.132276376     5.268613905
 H       -6.462398095    15.179051971     2.327662491
 C       -7.885041956    15.829138290     3.832934360
 C       -8.082848375    16.265483822     1.373405870
 H       -5.320369142    17.197651063     5.054084797
 C       -3.942874196    15.876862570     4.028684858
 C       -3.646545316    18.349299752     4.279503485
 H       -6.251657068    11.863980475    -0.840062576
 C       -6.074832891    14.006600164    -1.155348618
 C       -4.977102200    12.241043538    -2.555917425
 H       -5.030550765    13.877604737     1.900290048
 C       -6.112149992    12.012211486     2.153804800
 C       -3.803462511    12.463659906     3.008220984
 H       -1.782402692    -0.898778765    -1.445435050
 C       -0.297899078    -0.169986122    -2.849536036
 C       -0.195632775    -2.364921575    -1.643253125
 H       -0.103026637    -1.936477449     1.513935028
 C       -0.191593643    -0.228821838     2.854774635
 C       -2.129221385    -1.157796107     1.574533197
 H      -13.806053739    30.284043397     7.842457211
 H      -15.079205270    29.203301013     8.389849634
 H      -15.083772933    29.768450873     6.725763402
 H      -14.044571334    26.080919122     6.622004523
 H      -15.237002799    27.239464480     6.007985967
 H      -15.204781680    26.821672912     7.716139118
 H      -11.179518413    29.434161880     8.491625106
 H       -9.815646191    30.400582721     7.951696623
 H       -9.821042157    28.671091127     7.639099160
 H      -10.443405200    30.431255213     4.290200744
 H       -9.379261504    29.272652581     5.108382651
 H       -9.405006251    30.959756050     5.605400970
 H       -7.246415497    15.601932250     4.696068756
 H       -8.544303790    14.958951394     3.701506915
 H       -8.539401514    16.666772233     4.113383987
 H       -7.591423729    16.412336673     0.401407417
 H       -8.775526434    17.106172648     1.522821489
 H       -8.709691768    15.368291856     1.272843189
 H       -4.617515972    15.012040404     3.975533447
 H       -3.322436597    15.725087751     4.923824743
 H       -3.257755015    15.824356070     3.170678271
 H       -4.098957217    19.338271362     4.436303474
 H       -2.968561138    18.431477477     3.417254234
 H       -3.011494223    18.161641150     5.156514747
 H       -6.508734081    14.304580687    -0.190578901
 H       -6.896342439    14.042867609    -1.884752284
 H       -5.362573463    14.788119902    -1.457596394
 H       -4.549293710    11.231794938    -2.632039345
 H       -4.234421896    12.947599647    -2.951838527
 H       -5.826634911    12.264670243    -3.253200873
 H       -6.915299242    12.257755829     1.447210869
 H       -6.494554607    12.271312189     3.152092487
 H       -5.984364490    10.920885574     2.151313047
 H       -2.865847172    13.031255117     2.929192827
 H       -3.537760203    11.398092741     3.065769943
 H       -4.241544709    12.718838008     3.983554983
 H       -0.647577225     0.872100626    -2.874327735
 H       -0.770997824    -0.672563810    -3.705147982
 H        0.780921539    -0.161810700    -3.053861170
 H       -0.481793275    -2.971695626    -0.774475798
 H        0.889747148    -2.463388324    -1.777318547
 H       -0.657525772    -2.844777035    -2.518393723
 H        0.893651900    -0.097858107     2.953805611
 H       -0.508576794    -0.828770447     3.719861026
 H       -0.658460174     0.759042373     2.977999684
 H       -2.500380031    -1.723497986     0.710690510
 H       -2.701198203    -0.221353142     1.636939169
 H       -2.404049819    -1.742935795     2.464379465

