187   

Si        0.000000000     0.000000000     0.000000000
 C        1.865182623     0.000000000     0.000000000
 C       -0.673479864     1.713563061     0.000000000
 C        0.114914150     2.794080969     0.409027635
 C       -0.401009442     4.089780315     0.406776507
 C       -1.715720320     4.334692057     0.001644053
 C       -2.506047533     3.250554864    -0.402619941
 C       -1.993978065     1.955904848    -0.401355685
 C       -2.297200196     5.672945213    -0.016844177
 C       -1.649016452     6.793160143     0.345033638
 C       -2.228672710     8.132037915     0.327233357
 C       -3.543099542     8.379328230    -0.077493881
 C       -4.056679356     9.676024597    -0.078835456
 C       -3.269157291    10.752304497     0.341108200
 C       -1.951409120    10.507297421     0.750770191
 C       -1.438066157     9.213483856     0.738725115
Si       -3.913343304    12.474552133     0.352487744
 C       -3.261812578    13.428564708     1.771144868
 C       -2.930091270    12.880724530     2.947755678
 C       -2.407942153    13.635041304     4.089198664
 C       -2.098196326    12.939580056     5.268703642
 C       -1.601635747    13.604375224     6.377310049
 C       -1.431458842    15.003612470     6.346821530
 C       -1.735036756    15.701504384     5.168939413
 C       -2.197171899    15.014940171     4.050621575
 N       -0.918417794    15.619234626     7.517180794
 C       -1.765069915    15.476909595     8.719257896
 C       -0.359003826    16.968253227     7.344391914
 C       -2.860846340    16.539051676     8.917561475
 C       -3.975859504    16.518321258     7.855296022
 N       -4.971664416    15.445537143     7.999137780
 C       -5.597584834    15.286861015     9.240745313
 C       -5.877966050    16.422978033    10.033186707
 C       -6.496761849    16.283184739    11.264003599
 C       -6.902788050    15.025858534    11.734697925
 C       -6.651017942    13.906837473    10.936283537
 C       -6.016123897    14.024837000     9.707228289
 C       -4.690783429    14.236974476     7.214821154
 C       -7.552119155    14.936276428    13.042758428
 C       -7.981284785    13.792603939    13.593840487
Si       -8.792461816    13.679744359    15.227661028
 C       -8.211343027    14.992947048    16.377750398
 C       -6.883807116    15.436707651    16.310102042
 C       -6.426622783    16.429525200    17.172404108
 C       -7.278385786    16.994451786    18.131028473
 C       -8.599398225    16.544068093    18.201564361
 C       -9.061711103    15.552930959    17.336387921
 C       -6.753294584    18.032141310    19.012420437
 C       -7.463620220    18.655946249    19.967526708
 C       -6.939493305    19.693691686    20.849377578
 C       -5.619216200    20.145794590    20.780967327
 C       -5.160221453    21.140633676    21.644371865
 C       -6.012727365    21.701581442    22.600353748
 C       -7.337488299    21.249612736    22.671203482
 C       -7.793966453    20.260420039    21.804830365
Si       -5.422788516    23.015217918    23.747251424
 C       -3.563678026    23.165854137    23.720284083
 C       -6.179578485    24.686287842    23.239059128
 C       -6.023318913    22.587902968    25.502337892
 C      -10.676090775    13.802508954    14.987040812
 C       -8.384392110    11.982057769    15.983370332
 C       -3.382270853    13.339668006    -1.255609077
 C       -5.813319847    12.473867063     0.449648104
 C       -0.651623554    -0.911189284    -1.539389923
 C       -0.625027046    -0.914631367     1.547492837
 H        1.150746808     2.665420149     0.735240126
 H        0.234549045     4.913681804     0.726428766
 H       -3.532983506     3.419077035    -0.721229852
 H       -2.658309073     1.150168674    -0.725906457
 H       -3.336033263     5.715728373    -0.356759746
 H       -0.609814359     6.749436015     0.684460656
 H       -4.178796268     7.557120217    -0.400511452
 H       -5.088960744     9.807429302    -0.414309112
 H       -1.289966398    11.312277841     1.088985300
 H       -0.411059904     9.042556053     1.056413227
 H       -3.173824104    14.511537394     1.597594491
 H       -3.016834308    11.802559567     3.145925527
 H       -2.235461405    11.857987822     5.309208596
 H       -1.325278360    13.050207444     7.272403575
 H       -1.605124193    16.778094596     5.114415793
 H       -2.412014992    15.573667063     3.138900842
 H        0.151788307    17.263826156     8.277720300
 H       -1.100177161    17.742361474     7.092009767
 H        0.407494371    16.941231706     6.549046629
 H       -4.256324321    14.511638347     6.235271058
 H       -5.639708940    13.710082809     7.004118601
 H       -3.994780633    13.540176417     7.709842533
 H       -5.610513980    17.413487725     9.678282258
 H       -6.685482938    17.171092242    11.869196438
 H       -6.956770701    12.917059149    11.278664085
 H       -5.835346452    13.129411583     9.122034695
 H       -7.650438703    15.909861716    13.544156742
 H       -7.880880697    12.832232625    13.066323496
 H       -6.173094586    15.028502120    15.583400998
 H       -5.394342856    16.766539841    17.100562611
 H       -9.281608220    16.965855064    18.937146986
 H      -10.104829498    15.242092239    17.439986887
 H       -5.702284490    18.285479445    18.845494481
 H       -8.514607666    18.402396613    20.134375308
 H       -4.934524439    19.722792788    20.048215433
 H       -4.117401818    21.453472939    21.542664899
 H       -8.048799139    21.651001777    23.398617169
 H       -8.826549734    19.923553855    21.873966389
 H       -2.226062218    14.463888458     8.723262700
 H       -1.071765622    15.503329243     9.594636607
 H       -3.305985428    16.395282149     9.925216505
 H       -2.408659148    17.548095692     8.944189403
 H       -4.528997777    17.488545491     7.884032519
 H       -3.531452620    16.459612405     6.835375375
 H        2.263187295    -1.029459363    -0.046781913
 H        2.276420482     0.474133937     0.908221511
 H        2.259701509     0.548656191    -0.874713774
 H       -3.215279756    23.926147852    24.442033226
 H       -3.191245166    23.458821891    22.723082147
 H       -3.084939998    22.207307729    23.991421895
 H       -5.732587161    25.448915775    23.940390598
 C       -5.809802362    25.087290818    21.799131502
 C       -7.710467165    24.741964576    23.388059379
 H       -7.150645098    22.565970753    25.446330369
 C       -5.548259429    21.198860213    25.965703595
 C       -5.624684409    23.633019660    26.559482772
 H      -11.131983318    13.678856886    16.011435141
 C      -11.105119978    15.172875097    14.432705263
 C      -11.244228177    12.697527318    14.078660193
 H       -8.767896438    11.214692980    15.250756575
 C       -6.869357969    11.767246162    16.150937161
 C       -9.076471863    11.739865119    17.335971830
 H       -3.806020194    14.383956831    -1.203448739
 C       -1.852203054    13.450441934    -1.381198918
 C       -3.939891435    12.659371707    -2.517800498
 H       -6.172828721    11.903041093    -0.454697756
 C       -6.332998194    11.756975397     1.708786169
 C       -6.424150471    13.885427841     0.393010593
 H       -1.776343209    -0.917834360    -1.442970297
 C       -0.295342360    -0.185074696    -2.849223110
 C       -0.179829098    -2.373243613    -1.632528126
 H       -0.149687219    -1.937268656     1.512450552
 C       -0.188706182    -0.229923903     2.855707383
 C       -2.153014116    -1.098744535     1.572523598
 H       -4.727610370    25.153666883    21.628605293
 H       -6.218514009    26.081450836    21.568099378
 H       -6.223937329    24.402096582    21.045468025
 H       -8.056451503    24.548734987    24.411300278
 H       -8.229886732    24.042708870    22.717753881
 H       -8.076771495    25.745219840    23.125537928
 H       -5.844369037    20.389106381    25.283442664
 H       -5.991368702    20.954873205    26.941727059
 H       -4.459709473    21.139008779    26.096791371
 H       -5.991416055    24.642467369    26.332857371
 H       -4.538900759    23.697414888    26.710015069
 H       -6.054130374    23.362212534    27.535056451
 H      -10.784658282    16.017675586    15.057993441
 H      -12.200938911    15.230884977    14.374203167
 H      -10.731610196    15.356722985    13.414518536
 H      -11.046682436    11.683659408    14.449001706
 H      -10.868507926    12.757685812    13.047394683
 H      -12.337724297    12.791606841    14.012091570
 H       -6.307970496    11.869166601    15.212126183
 H       -6.671011660    10.751223933    16.520351529
 H       -6.419480630    12.453307648    16.883050761
 H      -10.171547675    11.784314729    17.279357485
 H       -8.752696765    12.445187734    18.114823808
 H       -8.829307611    10.736097661    17.710824912
 H       -1.381747438    13.979055860    -0.541061743
 H       -1.588288558    14.014722436    -2.287042323
 H       -1.359641365    12.471786748    -1.476100731
 H       -5.036504134    12.625711746    -2.546882908
 H       -3.570151277    11.632258180    -2.649906698
 H       -3.626464012    13.214090284    -3.414201940
 H       -5.986408803    10.717950437     1.795712996
 H       -7.431226581    11.714273292     1.692723542
 H       -6.058087936    12.275336508     2.639156312
 H       -6.164430428    14.436942739    -0.519546814
 H       -6.143119544    14.508098049     1.253946876
 H       -7.521913532    13.820030964     0.408372687
 H       -0.650029038     0.855136146    -2.879403979
 H       -0.764742234    -0.694438495    -3.702828611
 H        0.783662016    -0.171955488    -3.052870606
 H       -0.462622434    -2.977898844    -0.761167112
 H        0.906243449    -2.465426244    -1.765580025
 H       -0.638053073    -2.860294428    -2.505625235
 H        0.899933655    -0.131847443     2.955025172
 H       -0.523545635    -0.821370660     3.719999549
 H       -0.626525257     0.770953960     2.980324513
 H       -2.537534808    -1.666477167     0.715801123
 H       -2.697502550    -0.144800649     1.616667542
 H       -2.448914402    -1.661416428     2.469953796

