187   

Si        0.000000000     0.000000000     0.000000000
 C        1.865195697     0.000000000     0.000000000
 C       -0.648671348     1.723118307     0.000000000
 C       -0.005582585     2.704348287    -0.763189408
 C       -0.481230035     4.013871655    -0.776248943
 C       -1.604881244     4.378503029    -0.029732146
 C       -2.249913197     3.393942273     0.729201216
 C       -1.782216530     2.081519352     0.739679718
 C       -2.131645296     5.739573116    -0.018789985
 C       -1.607771982     6.767537797    -0.708087821
 C       -2.128218535     8.129913418    -0.702298678
 C       -1.484111005     9.109822501    -1.468901330
 C       -1.950613603    10.422431565    -1.489760741
 C       -3.064842470    10.789574624    -0.727134341
 C       -3.708625804     9.811927618     0.041478746
 C       -3.248878446     8.496865735     0.047564447
Si       -3.721606289    12.508325367    -0.718578725
 C       -4.534382039    12.891326905     0.873889136
 C       -4.185345508    12.350450221     2.049127525
 C       -4.840791917    12.662039706     3.319878001
 C       -4.387910923    12.032212374     4.489301413
 C       -4.975098276    12.293600692     5.715393237
 C       -6.048370324    13.206518597     5.813231030
 C       -6.516475315    13.821739190     4.638375620
 C       -5.929096170    13.531079307     3.412699439
 N       -6.625354859    13.452256076     7.072733968
 C       -5.709403221    13.560231513     8.223035210
 C       -7.774862678    14.367411475     7.107921384
 C       -4.415255000    14.366092403     8.024029958
 C       -4.585254085    15.897061639     8.032643795
 N       -4.212781840    16.581711270     6.780297138
 C       -3.042493026    16.132638209     6.134800756
 C       -1.876959717    15.979911965     6.914868505
 C       -0.701898356    15.541958584     6.329310848
 C       -0.634692976    15.268038194     4.954486256
 C       -1.787013255    15.435343839     4.182803609
 C       -2.978565482    15.863762325     4.757670028
 C       -5.357602622    16.933468256     5.931920249
 C        0.640978644    14.808335062     4.403670592
 C        0.854472884    14.509539005     3.115735069
Si        2.452061827    13.936138677     2.438367574
 C        2.289707032    12.422491347     1.409219513
 C        1.179047867    11.575496134     1.492525744
 C        1.100543004    10.437828595     0.690879126
 C        2.133210734    10.114589383    -0.198461429
 C        3.243803544    10.960295716    -0.273857652
 C        3.322520800    12.102002699     0.519476995
 C        2.017540689     8.916144775    -1.022257770
 C        2.938404799     8.510612723    -1.913725351
 C        2.827080421     7.313235636    -2.739495693
 C        1.722646841     6.461308431    -2.672689873
 C        1.644636950     5.324265539    -3.474533111
 C        2.678893577     5.009261173    -4.360936389
 C        3.791265853     5.858695814    -4.428963353
 C        3.863491761     6.995499159    -3.627466556
Si        2.575412099     3.507610523    -5.419613897
 C        0.831834302     2.846235018    -5.481392472
 C        3.184638510     3.941354740    -7.167315546
 C        3.704809705     2.162265758    -4.685240776
 C        3.138912485    15.341805788     1.349642999
 C        3.690146009    13.581570843     3.839382924
 C       -2.314212108    13.754038800    -1.008362851
 C       -4.996813889    12.692387714    -2.115638411
 C       -0.634928641    -0.882732387    -1.563267811
 C       -0.649485298    -0.942922045     1.519669455
 H        0.884310201     2.486228933    -1.362802066
 H        0.044567922     4.760132999    -1.369278655
 H       -3.128244307     3.651867369     1.317415775
 H       -2.331420018     1.357164648     1.346932894
 H       -3.013128721     5.883230275     0.612035112
 H       -0.729955241     6.616975539    -1.345334114
 H       -0.617880706     8.846104971    -2.074935890
 H       -1.410938023    11.141850000    -2.112369572
 H       -4.590565907    10.038035643     0.650826491
 H       -3.772124550     7.755644987     0.648195010
 H       -5.347972634    13.628525851     0.803768993
 H       -3.365212635    11.624943585     2.151692450
 H       -3.553536880    11.330254820     4.435818921
 H       -4.618084873    11.779528262     6.603637701
 H       -7.355521348    14.508646060     4.664230513
 H       -6.321895231    14.009731204     2.514339539
 H       -8.623639886    13.888437068     6.585809250
 H       -7.578920178    15.349416088     6.645368741
 H       -8.083561525    14.555354539     8.147652109
 H       -6.067113081    17.522926190     6.539445220
 H       -5.873295822    16.063242628     5.494925625
 H       -5.021720443    17.590822379     5.109059526
 H       -1.904787662    16.207916097     7.976417228
 H        0.186327308    15.417939372     6.948780966
 H       -1.765468555    15.216738765     3.113559003
 H       -3.864290875    15.950540976     4.134711804
 H        1.425941377    14.723446211     5.168104569
 H        0.053567735    14.609139526     2.365299908
 H        0.347202034    11.777754082     2.175450603
 H        0.221602188     9.795157791     0.756728480
 H        4.059637256    10.732351978    -0.956734934
 H        4.214910674    12.725146771     0.411761251
 H        1.107640932     8.331820582    -0.849489369
 H        3.852141242     9.089727632    -2.072342452
 H        0.906480003     6.690291364    -1.987317843
 H        0.747464725     4.702318175    -3.389328564
 H        4.628924085     5.663026861    -5.103623375
 H        4.735573127     7.642426903    -3.695323495
 H       -6.271681742    13.960541325     9.095678449
 H       -5.435349732    12.510270857     8.500355125
 H       -3.695926696    14.075014915     8.814488791
 H       -3.921724962    14.048121207     7.079097195
 H       -5.630823528    16.167216639     8.295584743
 H       -3.947807256    16.338365871     8.836354485
 H        2.263431821    -1.029405861     0.032856295
 H        2.256871422     0.537393371     0.883581458
 H        2.279704240     0.491456286    -0.898047554
 H        0.757610619     1.988410261    -6.173245805
 H        0.126889888     3.619797453    -5.837339657
 H        0.483516237     2.504877894    -4.489917669
 H        4.252607442     4.286907117    -7.047019253
 C        3.184400543     2.742619236    -8.132605297
 C        2.385410955     5.095045841    -7.799900078
 H        3.538165038     1.243240340    -5.317697782
 C        5.200886007     2.517500228    -4.745818609
 C        3.338053890     1.816132390    -3.230250453
 H        4.152933123    14.997077010     0.996331057
 C        2.267550738    15.604613037     0.108070135
 C        3.326414127    16.660294212     2.120043232
 H        3.698221663    14.504728779     4.488242521
 C        3.260297522    12.385080877     4.708108313
 C        5.127034672    13.339905675     3.343996532
 H       -1.938040066    13.562493971    -2.054490733
 C       -2.779277784    15.219465308    -0.928338389
 C       -1.143502030    13.550753227    -0.033076271
 H       -5.347714542    13.763748684    -2.081655272
 C       -4.405936057    12.427209670    -3.511374446
 C       -6.221100217    11.782041159    -1.910408480
 H       -0.218689680    -1.930096390    -1.515314101
 C       -2.170351536    -0.979874230    -1.614191842
 C       -0.137252800    -0.232626139    -2.867027135
 H       -1.775485129    -0.885220210     1.463701622
 C       -0.258176393    -2.431969224     1.530819612
 C       -0.206558873    -0.303287236     2.848321621
 H        3.793545027     1.900191323    -7.780291995
 H        3.606784941     3.042157825    -9.102944116
 H        2.175986558     2.361852986    -8.342265689
 H        2.389477017     6.010660167    -7.191376342
 H        1.337099737     4.833828106    -7.996917622
 H        2.823030676     5.369662313    -8.770361580
 H        5.566609894     2.693696547    -5.765264316
 H        5.801210977     1.687456872    -4.345655965
 H        5.455952491     3.398635982    -4.140158515
 H        2.296606442     1.486535740    -3.112775866
 H        3.504567298     2.654818978    -2.538238712
 H        3.967779917     0.990080530    -2.870193367
 H        2.121986817    14.712544170    -0.517495009
 H        2.747651371    16.354657210    -0.536395164
 H        1.275708123    16.005080305     0.359588685
 H        4.010403225    16.571879122     2.973851860
 H        2.379395845    17.075260783     2.494784485
 H        3.757562693    17.425335256     1.459000653
 H        2.253963387    12.490208505     5.136230949
 H        3.947436426    12.268716489     5.557729332
 H        3.284499966    11.431796521     4.160156602
 H        5.544777247    14.187643483     2.786503461
 H        5.217213089    12.443911500     2.713712418
 H        5.796885888    13.177419072     4.201004327
 H       -3.573831103    15.465989472    -1.642963102
 H       -1.940740808    15.891832994    -1.161174500
 H       -3.131241542    15.500882321     0.074444855
 H       -0.683902424    12.552949557    -0.104075177
 H       -1.427661987    13.709156158     1.017137159
 H       -0.339077733    14.267315210    -0.254745419
 H       -3.584317032    13.106036707    -3.773495085
 H       -5.178569373    12.570468370    -4.280582650
 H       -4.041063879    11.397080056    -3.633295796
 H       -6.736641175    11.951883679    -0.955455573
 H       -5.972044220    10.712501855    -1.967113926
 H       -6.964360862    11.965671126    -2.699108177
 H       -2.602160627    -1.517733348    -0.760580156
 H       -2.483803233    -1.530996286    -2.512512428
 H       -2.659250541     0.003241965    -1.671166104
 H        0.956993256    -0.230515512    -2.959035391
 H       -0.492159903     0.800517673    -2.992381919
 H       -0.514653360    -0.793306974    -3.734323523
 H       -0.615422366    -2.981816465     0.650579385
 H       -0.703469542    -2.930149579     2.404380021
 H        0.825645437    -2.590338244     1.607337743
 H       -0.478249346     0.758075068     2.935737141
 H        0.875750997    -0.380375615     3.019234112
 H       -0.689709322    -0.815124887     3.692783152

