187   

Si        0.000000000     0.000000000     0.000000000
 C        1.865392616     0.000000000     0.000000000
 C       -0.674922525     1.712622634     0.000000000
 C        0.127765263     2.803754362    -0.347625663
 C       -0.393411082     4.097500501    -0.344431196
 C       -1.727578650     4.329631971    -0.000191709
 C       -2.531856980     3.234625057     0.343350358
 C       -2.014392050     1.942311379     0.342260946
 C       -2.316026669     5.664681293     0.017130277
 C       -1.657874444     6.795746565    -0.288602177
 C       -2.248194934     8.130103759    -0.270685985
 C       -1.446284517     9.226763325    -0.612485674
 C       -1.966570358    10.518749291    -0.609345811
 C       -3.300283454    10.745907333    -0.249836438
 C       -4.102635270     9.651545996     0.093859298
 C       -3.582399595     8.358568879     0.078286470
Si       -4.013678385    12.439073529    -0.236604070
 C       -5.272965838    12.648768739     1.073199802
 C       -5.263400891    11.987680080     2.238464223
 C       -6.269715956    12.153775435     3.287776420
 C       -6.151837634    11.404022339     4.466241005
 C       -7.078044857    11.524378575     5.489967570
 C       -8.149093683    12.437901917     5.383188112
 C       -8.283109517    13.167651614     4.187057071
 C       -7.381959461    12.987549644     3.145889773
 N       -9.087777813    12.555529435     6.427955441
 C       -8.589327094    12.311613959     7.798513960
 C      -10.004644563    13.707350964     6.347849526
 C       -7.321906550    13.090050813     8.201157649
 C       -7.603767251    14.511105076     8.727882455
 N       -6.681658274    15.561423255     8.232225273
 C       -6.938949652    15.873201134     6.854060122
 C       -7.931145756    16.837634532     6.616808961
 C       -8.245140810    17.200302130     5.315314472
 C       -7.617393906    16.579540613     4.225598934
 C       -6.619199376    15.633427212     4.475049422
 C       -6.249952091    15.308437507     5.776396424
 C       -5.266743064    15.275638625     8.530145200
 C       -7.982839640    16.997167091     2.868971207
 C       -7.450649130    16.476234349     1.756263203
Si       -7.871731442    16.961649962     0.044131688
 C       -6.306209531    17.290217120    -0.860270191
 C       -5.262002702    17.961222983    -0.213598726
 C       -4.067190071    18.219298719    -0.883615547
 C       -3.888259624    17.810918102    -2.208905529
 C       -4.935846217    17.140521668    -2.853239632
 C       -6.132693756    16.884869503    -2.188686165
 C       -2.655966068    18.059212719    -2.948926889
 C       -1.578870681    18.689359400    -2.450387886
 C       -0.346441621    18.937575227    -3.190784755
 C       -0.169541644    18.533361016    -4.516498414
 C        1.025819205    18.791213158    -5.187211784
 C        2.070246926    19.464881131    -4.545983127
 C        1.895382224    19.870912111    -3.216019411
 C        0.703084515    19.607362630    -2.547624301
Si        3.653493247    19.811889907    -5.419323157
 C        3.481163617    19.591400074    -7.263396506
 C        4.183820597    21.595394036    -5.017408988
 C        4.996251527    18.624141844    -4.779491530
 C       -8.913503417    15.591929310    -0.763269850
 C       -8.912592698    18.555807618     0.023240977
 C       -2.642976260    13.720526028     0.093315973
 C       -4.797450373    12.841281758    -1.919930867
 C       -0.619679476    -0.918274621    -1.547702348
 C       -0.654254072    -0.907349882     1.540502289
 H        1.178574332     2.685089339    -0.625740146
 H        0.253268578     4.929967303    -0.615697712
 H       -3.574062833     3.393272471     0.614089154
 H       -2.689909437     1.128017074     0.618915692
 H       -3.370948763     5.695609714     0.305459996
 H       -0.603308825     6.765547561    -0.577553535
 H       -0.405054622     9.070497990    -0.887242022
 H       -1.295242312    11.334328302    -0.892512819
 H       -5.153009539     9.770076891     0.381552497
 H       -4.227744760     7.523782037     0.345292442
 H       -6.046690576    13.398114866     0.845703437
 H       -4.491847613    11.248112036     2.494519187
 H       -5.318568902    10.709954514     4.583085908
 H       -6.976598743    10.901690209     6.373645408
 H       -9.098758324    13.872510853     4.052700767
 H       -7.540660231    13.534842914     2.214372790
 H      -10.670537117    13.724651641     7.225111027
 H      -10.651127656    13.591381367     5.458860667
 H       -9.483550279    14.679519756     6.283250403
 H       -5.141606993    15.249903056     9.626369799
 H       -4.644737322    16.102998070     8.145488393
 H       -4.884290571    14.331218936     8.114977106
 H       -8.431210395    17.306203642     7.462791519
 H       -8.997264265    17.968906600     5.141832160
 H       -6.092583589    15.156303131     3.644523546
 H       -5.451038590    14.589931130     5.942916509
 H       -8.747584042    17.783907414     2.852532050
 H       -6.682292638    15.684301977     1.809825075
 H       -5.342862386    18.296752506     0.825929266
 H       -3.269130806    18.744513690    -0.362036353
 H       -4.816268908    16.814598094    -3.884592555
 H       -6.915367443    16.359841299    -2.742958822
 H       -2.656704085    17.687403060    -3.977652679
 H       -1.577436380    19.061899648    -1.421691596
 H       -0.968303415    18.010753320    -5.039620810
 H        1.105355621    18.450673987    -6.223328371
 H        2.676991982    20.401012938    -2.664291336
 H        0.586788190    19.928922535    -1.514262970
 H       -9.412333916    12.514915142     8.517940442
 H       -8.391381413    11.215155504     7.877689728
 H       -6.769957520    12.513594074     8.965868917
 H       -6.634628118    13.144622599     7.330953633
 H       -8.639201010    14.826426866     8.471216607
 H       -7.542944357    14.527252352     9.838762946
 H        2.263424714    -1.028773192     0.058399639
 H        2.260532293     0.558643430     0.867983536
 H        2.275470458     0.463619619    -0.914183870
 H        4.418417325    19.855189586    -7.785332449
 H        2.683037071    20.240996642    -7.666628980
 H        3.234404222    18.548947370    -7.530353474
 H        4.321901967    21.632435607    -3.897595736
 C        5.517608909    22.000904234    -5.669506407
 C        3.106818818    22.629011341    -5.393475775
 H        5.920511859    18.853301679    -5.384781414
 C        5.338012189    18.826039105    -3.292378707
 C        4.632145922    17.145300207    -5.005562815
 H       -9.153220213    15.965576735    -1.801259343
 C       -8.180235552    14.248646258    -0.901247700
 C      -10.244235918    15.350383992    -0.026196571
 H       -9.811478584    18.349089537     0.672897033
 C       -8.162693010    19.763594502     0.613635750
 C       -9.416581121    18.928732759    -1.382194034
 H       -1.910091393    13.622409762    -0.758225916
 C       -3.166851256    15.165130471     0.107516741
 C       -1.891468710    13.450768110     1.409298932
 H       -5.255779227    13.868706521    -1.806496805
 C       -3.774801635    12.909694840    -3.067224626
 C       -5.913396170    11.852573946    -2.300372926
 H       -0.134511924    -1.936314435    -1.514459574
 C       -2.145749602    -1.117676721    -1.572569404
 C       -0.191278149    -0.227604445    -2.855457652
 H       -1.778899393    -0.911775903     1.443112272
 C       -0.185059793    -2.370038284     1.636924217
 C       -0.297881794    -0.178952967     2.849090507
 H        6.353834799    21.345520902    -5.393668949
 H        5.801050152    23.012969660    -5.345415147
 H        5.465819890    22.033683551    -6.765873807
 H        2.134117680    22.434764082    -4.919224190
 H        2.938218192    22.698821936    -6.476301531
 H        3.414483527    23.631453318    -5.063137193
 H        5.698668111    19.836344230    -3.061278003
 H        6.143472132    18.138298630    -2.995746845
 H        4.490958663    18.608887070    -2.626384429
 H        4.454658010    16.895717027    -6.059540889
 H        3.746012854    16.831512497    -4.435260899
 H        5.456718354    16.498917938    -4.672021364
 H       -7.216133647    14.327808888    -1.423271134
 H       -8.787491131    13.545611015    -1.489628784
 H       -8.001745089    13.758733117     0.066584247
 H      -10.886802956    16.238406736     0.019874015
 H      -10.105367782    14.985088140     1.001775910
 H      -10.828870553    14.579746415    -0.548964422
 H       -7.792246438    19.596737674     1.634167000
 H       -8.832346469    20.633641281     0.667144302
 H       -7.305953899    20.073853000    -0.002149233
 H      -10.057267106    18.161193715    -1.834514387
 H       -8.601207523    19.143194383    -2.087613013
 H      -10.025076492    19.843676877    -1.332936137
 H       -3.662447983    15.462302716    -0.828538685
 H       -2.332137938    15.868392158     0.239301368
 H       -3.869493375    15.362183302     0.929307116
 H       -1.438378433    12.451618756     1.458064512
 H       -2.531150455    13.567881045     2.296252470
 H       -1.067188739    14.168382949     1.525273745
 H       -3.006553167    13.680379812    -2.917485025
 H       -4.282282754    13.163313329    -4.008913158
 H       -3.261761966    11.954278355    -3.243529297
 H       -6.710890009    11.781854776    -1.548007309
 H       -5.537407094    10.834947798    -2.478644462
 H       -6.395717889    12.168468006    -3.235899603
 H       -2.525102695    -1.686657010    -0.714421607
 H       -2.435480204    -1.685778765    -2.468565718
 H       -2.699416505    -0.169194622    -1.620269691
 H        0.896159646    -0.117966442    -2.955475191
 H       -0.639265310     0.769091614    -2.978207424
 H       -0.520694992    -0.821068360    -3.720337494
 H       -0.463823065    -2.974712293     0.764318636
 H       -0.648713719    -2.855987043     2.507750608
 H        0.900168446    -2.463386809     1.775743464
 H       -0.652605793     0.861386094     2.876884782
 H        0.781001766    -0.165631155     3.052986689
 H       -0.767941526    -0.686535766     3.703375754

