187   

Si        0.000000000     0.000000000     0.000000000
 C        1.865171793     0.000000000     0.000000000
 C       -0.676392122     1.712265611     0.000000000
 C        0.117904609     2.800685361     0.374728665
 C       -0.403850021     4.094235521     0.371433124
 C       -1.730405795     4.328630865     0.000351228
 C       -2.526350805     3.236362947    -0.370176114
 C       -2.008171800     1.944336556    -0.369208253
 C       -2.319589889     5.663307223    -0.018337800
 C       -1.670066876     6.792733203     0.311098493
 C       -2.262779207     8.125989714     0.291179869
 C       -1.471449498     9.221805091     0.659268457
 C       -1.994715159    10.512645588     0.655196764
 C       -3.320655119    10.739560870     0.268174210
 C       -4.112746915     9.646221856    -0.101668713
 C       -3.589690418     8.354421492    -0.084637219
Si       -4.041750987    12.431627735     0.251821531
 C       -5.273654472    12.633006786    -1.084512855
 C       -5.232323220    11.973677423    -2.250236185
 C       -6.216568507    12.132652212    -3.321478894
 C       -6.063704587    11.384097654    -4.497910529
 C       -6.966259859    11.496535178    -5.542095232
 C       -8.042107193    12.408272832    -5.462234402
 C       -8.196416153    13.159800559    -4.282008798
 C       -7.306461974    13.001183775    -3.226696011
 N       -8.948127903    12.509209624    -6.530750634
 C       -8.422188431    12.306037422    -7.892405674
 C       -9.989915371    13.541697773    -6.434131253
 C       -7.241935083    13.211972637    -8.283150292
 C       -7.655045132    14.632462069    -8.704501076
 N       -8.136354856    14.762210912   -10.091061241
 C       -7.286346901    14.326460157   -11.120063526
 C       -5.886435187    14.434017821   -10.966611595
 C       -5.035890526    14.008220650   -11.973355234
 C       -5.535537142    13.507522540   -13.184175262
 C       -6.921199671    13.430457205   -13.346083075
 C       -7.789287443    13.836423850   -12.340556672
 C       -9.575266639    14.510382409   -10.256035647
 C       -4.591614351    13.071191262   -14.214524095
 C       -4.955662663    12.577844952   -15.405258011
Si       -3.822594675    12.019302230   -16.725549434
 C       -4.318949620    10.345206398   -17.304384396
 C       -5.087178582     9.512852731   -16.481066153
 C       -5.464411131     8.245077791   -16.916538828
 C       -5.075728392     7.774620338   -18.177590440
 C       -4.303493491     8.605920240   -18.994160489
 C       -3.927282696     9.877366675   -18.563345612
 C       -5.496099830     6.439089773   -18.588550602
 C       -5.195857109     5.871490124   -19.769053152
 C       -5.616236113     4.536025069   -20.179933957
 C       -6.388088364     3.704406972   -19.364475866
 C       -6.767992299     2.434092222   -19.797249067
 C       -6.389395557     1.970206668   -21.060932241
 C       -5.616159019     2.802858266   -21.881353980
 C       -5.233337984     4.067867883   -21.444146326
Si       -6.882673764     0.296299071   -21.646858130
 C       -8.218975835    -0.440283195   -20.573883135
 C       -7.491568231     0.447385930   -23.444143584
 C       -5.368448498    -0.856677214   -21.617330871
 C       -3.926802204    13.248739823   -18.174360431
 C       -2.024236727    11.953291499   -16.110462491
 C       -4.907495761    12.743989051     1.916658178
 C       -2.670772073    13.730815893     0.023118614
 C       -0.651924277    -0.909237525    -1.540483872
 C       -0.622946829    -0.916783138     1.547329008
 H        1.162540941     2.679899971     0.674555961
 H        0.236333896     4.924646903     0.663597205
 H       -3.562425434     3.396916006    -0.662476066
 H       -2.676971795     1.132305893    -0.668016016
 H       -3.368067617     5.695508650    -0.329660743
 H       -0.622157645     6.761767144     0.622930897
 H       -0.436079434     9.065797167     0.955608219
 H       -1.331446149    11.326936312     0.959036763
 H       -5.156924035     9.764402819    -0.411575711
 H       -4.227250891     7.520382831    -0.372389382
 H       -6.066490806    13.365149839    -0.870186641
 H       -4.445740546    11.244065560    -2.491685131
 H       -5.226167934    10.690509769    -4.590015125
 H       -6.839828713    10.876116631    -6.424954885
 H       -9.011867482    13.866670697    -4.174410308
 H       -7.459036143    13.583496301    -2.316747161
 H      -10.637933363    13.511312523    -7.325510401
 H       -9.592652757    14.564037239    -6.322928574
 H      -10.636421446    13.318186993    -5.564116210
 H      -10.130831484    14.889347081    -9.382540503
 H       -9.824861880    13.445724394   -10.396218698
 H       -9.939870416    15.076718879   -11.134265415
 H       -5.465912391    14.849113024   -10.054949527
 H       -3.957793456    14.079364256   -11.823295687
 H       -7.338239776    13.045989866   -14.278664029
 H       -8.857633388    13.757753471   -12.511045231
 H       -3.541776252    13.185145445   -13.913799219
 H       -6.019817651    12.485081441   -15.679771726
 H       -5.415361119     9.826373870   -15.484598713
 H       -6.065807735     7.613222615   -16.265687229
 H       -3.988303373     8.264400055   -19.978252294
 H       -3.324494232    10.482562026   -19.246000622
 H       -6.096250042     5.901023382   -17.848851247
 H       -4.595648917     6.409848346   -20.508415296
 H       -6.699543018     4.043302156   -18.378066852
 H       -7.370609223     1.828994696   -19.114275025
 H       -5.291343359     2.494077510   -22.878986053
 H       -4.631453089     4.699214291   -22.095023137
 H       -8.111304200    11.235779351    -7.971532068
 H       -9.256691875    12.420622319    -8.617981118
 H       -6.526648005    13.278106158    -7.437268797
 H       -6.671520233    12.730194396    -9.103929295
 H       -8.434260302    15.030453669    -8.018344929
 H       -6.784607582    15.323263120    -8.588505759
 H        2.262966879    -1.029625424    -0.044784236
 H        2.275973725     0.475677743     0.907641196
 H        2.260172392     0.546902576    -0.875524406
 H       -8.539156936    -1.425525016   -20.957363891
 H       -9.111124832     0.211551903   -20.548762613
 H       -7.876595877    -0.583681922   -19.534073388
 H       -6.617917761     0.851448525   -24.033968814
 C       -7.899692540    -0.898214791   -24.069645000
 C       -8.657439952     1.442124635   -23.589573573
 H       -5.750832253    -1.870047080   -21.933731244
 C       -4.256994533    -0.440089847   -22.597230476
 C       -4.758863778    -0.994949427   -20.210198558
 H       -3.188556348    12.883739620   -18.945703155
 C       -5.320688090    13.275058819   -18.826315008
 C       -3.530774322    14.681522679   -17.776876397
 H       -1.806904858    12.972317509   -15.676970087
 C       -1.822669348    10.905634175   -15.000168242
 C       -1.004709052    11.685975718   -17.232002864
 H       -5.318460520    13.793159242     1.862870620
 C       -6.085180861    11.780848576     2.150620025
 C       -3.950915868    12.665774091     3.119204870
 H       -1.965990649    13.599910905     0.894346274
 C       -1.872980626    13.514020315    -1.275419290
 C       -3.195188744    15.177562989     0.050291752
 H       -1.776558877    -0.916942349    -1.443128191
 C       -0.297499420    -0.180278838    -2.849199904
 C       -0.178807939    -2.370641329    -1.636675366
 H       -0.145532704    -1.938325490     1.511320243
 C       -0.187355949    -0.231816451     2.855617337
 C       -2.150487283    -1.104391319     1.573485914
 H       -7.093435336    -1.643042373   -24.064527141
 H       -8.176536823    -0.752968295   -25.124075893
 H       -8.774544216    -1.349042219   -23.582682943
 H       -8.420200015     2.446942179   -23.211433449
 H       -9.573465882     1.107034991   -23.085313971
 H       -8.916493150     1.566952626   -24.650634270
 H       -4.588756097    -0.402257653   -23.642482977
 H       -3.434532033    -1.169558664   -22.563512746
 H       -3.811515826     0.533489256   -22.348349618
 H       -5.469433527    -1.367469713   -19.461229936
 H       -4.340423420    -0.051232637   -19.831457426
 H       -3.927545619    -1.714265843   -20.228856951
 H       -5.658247144    12.288322763   -19.173450750
 H       -5.309407964    13.924428010   -19.713251792
 H       -6.097184541    13.676382200   -18.160706895
 H       -2.510632913    14.757138113   -17.378975294
 H       -4.210844957    15.122889126   -17.034031643
 H       -3.567372412    15.339987887   -18.656443309
 H       -2.489160304    11.044039811   -14.137946370
 H       -0.796754011    10.961381108   -14.609953141
 H       -1.960116008     9.874930504   -15.358002155
 H       -1.010391672    12.451739662   -18.017993194
 H       -1.143942072    10.707730853   -17.713466176
 H        0.014566721    11.679500647   -16.818861631
 H       -6.844497511    11.818842243     1.357632571
 H       -6.602685226    12.037870323     3.085680311
 H       -5.766216698    10.733604962     2.254602441
 H       -3.130106849    13.392645845     3.071616803
 H       -3.507422125    11.668065364     3.249274542
 H       -4.497265335    12.880621883     4.049062418
 H       -1.414585713    12.517766147    -1.345803815
 H       -1.048295513    14.237732927    -1.337830796
 H       -2.481462762    13.660789411    -2.179627523
 H       -3.713306219    15.436491615     0.982360998
 H       -3.873922802    15.401366294    -0.784582281
 H       -2.356099571    15.882587594    -0.039547404
 H       -0.653801743     0.859472495    -2.877190000
 H       -0.766966023    -0.688675694    -3.703371472
 H        0.781267087    -0.165250279    -3.053752739
 H       -0.459490248    -2.976993234    -0.765834803
 H        0.907104293    -2.461539931    -1.771732972
 H       -0.638078087    -2.856670464    -2.509806473
 H        0.901070548    -0.131063865     2.954349513
 H       -0.520285317    -0.824465316     3.719809278
 H       -0.627441114     0.768023469     2.981031354
 H       -2.534622205    -1.671677501     0.716317688
 H       -2.697111176    -0.151748048     1.620030679
 H       -2.444178092    -1.669133372     2.470347765

