187   

Si        0.000000000     0.000000000     0.000000000
 C        1.865101257     0.000000000     0.000000000
 C       -0.676287089     1.712239367     0.000000000
 C        0.078702360     2.777568808    -0.501993164
 C       -0.435335697     4.074016902    -0.501149085
 C       -1.715635484     4.334655763    -0.005458631
 C       -2.473254046     3.265414669     0.490623254
 C       -1.963077958     1.970010195     0.490564808
 C       -2.295064741     5.673586385     0.015852291
 C       -1.678884755     6.782333645    -0.427935145
 C       -2.261303390     8.120101168    -0.405172238
 C       -1.508110135     9.192324323    -0.900571508
 C       -2.023340065    10.486336988    -0.898820662
 C       -3.299079385    10.741414660    -0.382367513
 C       -4.052016288     9.672163085     0.116360618
 C       -3.539864891     8.376026600     0.098803986
Si       -4.009653809    12.438509026    -0.364752271
 C       -5.052351904    12.724331450     1.110025018
 C       -4.845880821    12.123147477     2.289806194
 C       -5.665819541    12.335224481     3.483793261
 C       -5.336822571    11.638771826     4.656978963
 C       -6.076786285    11.799852840     5.816424884
 C       -7.155941996    12.708085614     5.852073313
 C       -7.484123647    13.410419405     4.679524726
 C       -6.755364865    13.208590104     3.512681546
 N       -7.887518082    12.845029031     7.053227858
 C       -7.081765834    12.953227112     8.288720095
 C       -9.024964585    13.778244084     7.014748112
 C       -5.913680326    13.952778870     8.188918335
 C       -5.736691630    14.849035903     9.426524596
 N       -6.834673012    15.794454267     9.726644031
 C       -7.457529018    16.416965795     8.630955056
 C       -6.656550255    16.871572139     7.559244087
 C       -7.237943525    17.488071327     6.466472660
 C       -8.618416670    17.740323894     6.426554185
 C       -9.403251361    17.330792636     7.504890955
 C       -8.838104926    16.685833213     8.599858034
 C       -7.704739008    15.355713039    10.828822729
 C       -9.167095115    18.395391373     5.240796664
 C      -10.459384829    18.700295903     5.058426004
Si      -11.035557481    19.523639659     3.527632745
 C       -9.918435750    19.000676625     2.159920352
 C       -9.608117528    17.636024300     2.055461629
 C       -8.770467663    17.178546314     1.044673817
 C       -8.224418357    18.070514677     0.110821758
 C       -8.535773356    19.427650694     0.215758664
 C       -9.375055862    19.890296313     1.230917121
 C       -7.352835705    17.533703467    -0.926867375
 C       -6.754297790    18.256748942    -1.888427858
 C       -5.886522450    17.685751646    -2.913253392
 C       -5.609439763    16.316857662    -2.969891360
 C       -4.777482356    15.798220532    -3.958982454
 C       -4.192799501    16.640413395    -4.911386180
 C       -4.462151593    18.012716412    -4.852539612
 C       -5.297207567    18.528626775    -3.863239904
Si       -3.100164039    15.909172324    -6.199708024
 C       -3.771297785    14.268020948    -6.778489971
 C       -2.924261376    17.102988762    -7.669305283
 C       -1.378849909    15.649332221    -5.424850775
 C      -12.818680509    18.987367296     3.150189769
 C      -10.999434395    21.409658263     3.760562120
 C       -2.634180649    13.748607804    -0.452221688
 C       -5.101126994    12.607110027    -1.917081111
 C       -0.628065861    -0.907730633    -1.550632278
 C       -0.647331185    -0.922249064     1.534893503
 H        1.086546453     2.636019363    -0.901934505
 H        0.173919651     4.886057112    -0.893711783
 H       -3.473512690     3.446143715     0.879980555
 H       -2.601847698     1.176440386     0.888052696
 H       -3.305661295     5.727544641     0.431772369
 H       -0.668866016     6.729524288    -0.844278241
 H       -0.510075110     9.014760105    -1.296031801
 H       -1.392906561    11.281101115    -1.306890654
 H       -5.055662351     9.813162857     0.532421095
 H       -4.146988328     7.560563327     0.488003767
 H       -5.866732886    13.451374133     0.972955949
 H       -4.031607086    11.401828106     2.452266507
 H       -4.492937536    10.947879452     4.654679767
 H       -5.825382529    11.222976151     6.701837326
 H       -8.301877005    14.125775984     4.668902121
 H       -7.034432018    13.760172777     2.613778776
 H       -9.558640041    13.755677747     7.978644056
 H       -9.740947240    13.444778879     6.242298359
 H       -8.735719895    14.824477220     6.808463551
 H       -7.086002498    14.987066905    11.664945871
 H       -8.421917767    14.567882611    10.548816295
 H       -8.267112661    16.226172958    11.215494615
 H       -5.577621434    16.741576720     7.594470486
 H       -6.607595955    17.801046497     5.631480126
 H      -10.477239925    17.520951718     7.498850234
 H       -9.482654883    16.382682901     9.417522345
 H       -8.396531221    18.611390829     4.483024510
 H      -11.222067566    18.490897616     5.818460350
 H      -10.001027944    16.895165253     2.761406091
 H       -8.536699669    16.116849326     0.981173811
 H       -8.123859994    20.139020318    -0.497232477
 H       -9.585849419    20.962356629     1.262225688
 H       -7.204023269    16.449187854    -0.875659916
 H       -6.895372551    19.338203870    -1.949242892
 H       -6.060056244    15.640132876    -2.243851718
 H       -4.607473636    14.715958697    -3.959331688
 H       -4.032763789    18.718590211    -5.568298213
 H       -5.494302517    19.598289693    -3.834238823
 H       -7.757354940    13.217902808     9.129719351
 H       -6.697223476    11.933826157     8.522670293
 H       -4.968484752    13.404180325     8.007771150
 H       -6.041652251    14.577656696     7.279725298
 H       -5.546917816    14.216164750    10.320919544
 H       -4.816688715    15.471039358     9.291942438
 H        2.263012890    -1.028728811     0.059768783
 H        2.259216958     0.560074565     0.867712861
 H        2.276722938     0.463211125    -0.913565237
 H       -3.137058958    13.836472169    -7.573129926
 H       -4.789811613    14.383820421    -7.192355077
 H       -3.825914242    13.530762672    -5.958067464
 H       -2.536256012    18.071931704    -7.239007574
 C       -1.915577767    16.625491567    -8.729888973
 C       -4.269508929    17.394827510    -8.359175091
 H       -0.735934664    15.213570022    -6.242579006
 C       -0.730941757    16.963692956    -4.953562025
 C       -1.391719098    14.656293959    -4.248247674
 H      -13.437800070    19.335546611     4.027284236
 C      -13.384881000    19.637946286     1.875821377
 C      -12.970328046    17.459380822     3.039423750
 H      -11.279093451    21.851265893     2.760414032
 C      -12.014911430    21.914052498     4.801894660
 C       -9.600970344    21.928562078     4.141828307
 H       -2.065145669    13.540336133    -1.404835513
 C       -3.157915116    15.193274292    -0.523059696
 C       -1.651305447    13.634388406     0.727381772
 H       -5.357441351    13.702204788    -2.002522608
 C       -4.374867660    12.174901747    -3.203059023
 C       -6.418065394    11.819140004    -1.803863641
 H       -0.158934739    -1.933151827    -1.518653082
 C       -2.157303074    -1.081848296    -1.574826377
 C       -0.188347071    -0.221640253    -2.856891210
 H       -1.772398652    -0.928283609     1.442417904
 C       -0.175962262    -2.385346484     1.615281633
 C       -0.285738165    -0.206841636     2.849230163
 H       -0.903355238    16.478079813    -8.331524959
 H       -1.824389164    17.378147472    -9.526670717
 H       -2.220131135    15.692986549    -9.223161588
 H       -5.040379121    17.774216623    -7.673941170
 H       -4.686927216    16.516175557    -8.869330761
 H       -4.137833084    18.166111347    -9.131512482
 H       -0.601865363    17.699566457    -5.757356349
 H        0.275031179    16.766666031    -4.555664778
 H       -1.292390092    17.449865149    -4.142767602
 H       -1.742272657    13.655098104    -4.530906701
 H       -2.001588770    15.004803644    -3.400863973
 H       -0.372697666    14.524764277    -3.856540644
 H      -13.389035993    20.735022338     1.910369761
 H      -14.430759303    19.331487205     1.729423459
 H      -12.847409086    19.335312892     0.965670455
 H      -12.614617520    16.918659688     3.926875570
 H      -12.452314643    17.042735419     2.163744700
 H      -14.030787348    17.194685652     2.921394332
 H      -13.054188773    21.662545197     4.555089751
 H      -11.973148626    23.011158632     4.865850951
 H      -11.810031849    21.540687328     5.814826194
 H       -8.818044224    21.653381421     3.422176700
 H       -9.272914326    21.579158886     5.132021149
 H       -9.605087037    23.026583450     4.187973741
 H       -3.764740357    15.395169081    -1.416534453
 H       -2.315322362    15.898413496    -0.570149159
 H       -3.748523982    15.483615041     0.356693475
 H       -1.190846015    12.641849641     0.823075416
 H       -2.117317793    13.874897733     1.694005390
 H       -0.823695071    14.346345054     0.599724082
 H       -3.448983988    12.734022681    -3.393258622
 H       -5.024955319    12.333972420    -4.075877080
 H       -4.118399971    11.105347254    -3.208084392
 H       -7.028428210    12.108054918    -0.937718399
 H       -6.263274129    10.732451529    -1.749964707
 H       -7.040269126    11.994942501    -2.693138604
 H       -2.544071081    -1.654353966    -0.722272198
 H       -2.458351133    -1.634687989    -2.476555059
 H       -2.695969483    -0.124075543    -1.609334747
 H        0.900699419    -0.128830169    -2.956037867
 H       -0.621539053     0.781677746    -2.978621558
 H       -0.526187626    -0.808929104    -3.722813147
 H       -0.457689984    -2.982007782     0.738108890
 H       -0.635611907    -2.880184624     2.483234303
 H        0.909899926    -2.478894439     1.748827938
 H       -0.637875925     0.833903846     2.888653769
 H        0.793976552    -0.197460833     3.049433679
 H       -0.753385683    -0.722092680     3.700252140

