187   

Si        0.000000000     0.000000000     0.000000000
 C        1.865186291     0.000000000     0.000000000
 C       -0.671422531     1.713163003     0.000000000
 C        0.062256430     2.759301050    -0.569988102
 C       -0.442104098     4.058945410    -0.572477935
 C       -1.688178366     4.342057940    -0.006561785
 C       -2.424624544     3.292658404     0.558085706
 C       -1.926164208     1.992606668     0.556228057
 C       -2.253651059     5.685542878     0.012849931
 C       -1.652200107     6.772340137    -0.499356927
 C       -2.220565205     8.114854766    -0.478313602
 C       -3.467284633     8.392441939     0.089003807
 C       -3.975774298     9.689722593     0.089034416
 C       -3.267595660    10.726851515    -0.527929259
 C       -2.021942067    10.451007548    -1.105039222
 C       -1.498489323     9.161684388    -1.063659599
Si       -3.937610019    12.436817462    -0.528018339
 C       -3.272678968    13.460779377    -1.886958755
 C       -2.876014694    13.020585490    -3.089328832
 C       -2.350590686    13.898587680    -4.137486598
 C       -1.957848822    13.354972459    -5.368131729
 C       -1.456115428    14.158936365    -6.381868361
 C       -1.377229164    15.556003471    -6.213298045
 C       -1.775897395    16.104169000    -4.976290995
 C       -2.232296423    15.280699829    -3.958527809
 N       -0.876985084    16.406395309    -7.211426585
 C       -0.614238018    15.873109560    -8.551668511
 C       -1.378874388    17.790755709    -7.216852973
 C       -1.877782414    15.661565393    -9.406554544
 C       -1.505276967    15.130027380   -10.805222071
 N       -2.096851702    13.817283013   -11.133532838
 C       -1.805366286    12.772890739   -10.227331843
 C       -0.493467223    12.645717167    -9.724635902
 C       -0.178591138    11.631259310    -8.834650427
 C       -1.128131403    10.664553296    -8.475791569
 C       -2.417771728    10.772597066    -9.002483859
 C       -2.760606033    11.808970634    -9.861601300
 C       -3.496806314    13.931401953   -11.577854950
 C       -0.750275142     9.611114799    -7.531687679
 C       -1.584216424     8.644762826    -7.127837778
Si       -1.203833812     7.294711421    -5.958570648
 C       -2.529509839     7.249396068    -4.686144049
 C       -3.295387365     8.394151079    -4.434263945
 C       -4.300504348     8.365934661    -3.472054719
 C       -4.570612670     7.194095828    -2.754239806
 C       -3.803306618     6.054070893    -3.008900698
 C       -2.785911781     6.081541261    -3.961120869
 C       -5.633822466     7.214977242    -1.756427477
 C       -5.984951225     6.167943245    -0.990834341
 C       -7.049835396     6.197727304     0.004879524
 C       -7.813579042     7.340928971     0.254853814
 C       -8.823334801     7.327142758     1.216409349
 C       -9.091735951     6.166408593     1.948519211
 C       -8.325164903     5.019505684     1.701659581
 C       -7.314863346     5.037360480     0.744226665
Si      -10.421351823     6.134680548     3.220257041
 C      -11.573474198     7.591386422     3.045805051
 C      -11.389864033     4.505911535     3.042456858
 C       -9.625841361     6.182425279     4.949301393
 C       -1.122778646     5.640317028    -6.886994181
 C        0.447168398     7.584545938    -5.058435662
 C       -5.835470277    12.367929704    -0.674599193
 C       -3.484652718    13.265255953     1.123210597
 C       -0.630177256    -0.889280608    -1.561140713
 C       -0.648925637    -0.933656446     1.526575920
 H        1.044350951     2.598918507    -1.023032832
 H        0.148004505     4.856020139    -1.021486879
 H       -3.397444074     3.492686079     1.003801456
 H       -2.546477937     1.213363649     1.006680777
 H       -3.235987460     5.765290920     0.488855466
 H       -0.672567985     6.696834834    -0.979697708
 H       -4.050449143     7.594052659     0.547597970
 H       -4.943573626     9.849760765     0.571993242
 H       -1.422522694    11.226706462    -1.592652479
 H       -0.520361760     8.964583699    -1.499521571
 H       -3.231166089    14.533902567    -1.639090657
 H       -2.911339479    11.962057060    -3.381123854
 H       -2.037063065    12.278437691    -5.536388297
 H       -1.149976160    13.693375219    -7.316819383
 H       -1.710257552    17.172578774    -4.800113134
 H       -2.514918198    15.731881718    -3.006032908
 H       -1.074936388    18.313835834    -8.137590709
 H       -0.927038858    18.340507132    -6.370332495
 H       -2.476557012    17.850502576    -7.131597118
 H       -3.575523108    14.720372545   -12.344980705
 H       -4.203279137    14.164001779   -10.764859973
 H       -3.804110751    12.988013737   -12.063965349
 H        0.278955251    13.342771129   -10.037348966
 H        0.831925436    11.573189437    -8.428437889
 H       -3.179518121    10.038521271    -8.733586169
 H       -3.779335190    11.864794048   -10.231690847
 H        0.287431055     9.688804236    -7.184169450
 H       -2.618442913     8.594032681    -7.511150377
 H       -3.128200146     9.335999444    -4.966946140
 H       -4.877246145     9.268835161    -3.275240346
 H       -3.986604829     5.134159269    -2.455601811
 H       -2.211633114     5.163205289    -4.110874172
 H       -6.149430133     8.175556234    -1.658598393
 H       -5.470695045     5.207722584    -1.088135810
 H       -7.627313761     8.256733379    -0.303853681
 H       -9.389174162     8.250585832     1.366749522
 H       -8.491253673     4.084589778     2.243809803
 H       -6.729578160     4.136967911     0.566793805
 H        0.081465247    16.578599660    -9.063563432
 H       -0.051138193    14.914924618    -8.448248841
 H       -2.560868040    14.959012637    -8.888298520
 H       -2.445978209    16.603708766    -9.489931086
 H       -1.815483245    15.858021048   -11.587285045
 H       -0.400677288    15.038673626   -10.920200745
 H        2.263351829    -1.028669994     0.058557749
 H        2.258541708     0.559387615     0.868637908
 H        2.276874050     0.465078339    -0.912425401
 H      -12.397585926     7.537315003     3.779454661
 H      -12.027282640     7.618029531     2.038425447
 H      -11.048977147     8.549696151     3.204874326
 H      -10.639911529     3.679740469     3.214028857
 C      -12.514499427     4.343531464     4.080518277
 C      -11.978546053     4.321643649     1.632048374
 H      -10.483668329     6.222364831     5.680903945
 C       -8.781426330     4.936530969     5.271653504
 C       -8.756669161     7.435598384     5.162384412
 H       -0.852239264     4.862517510    -6.114563136
 C       -2.475041866     5.242815820    -7.505373170
 C       -0.043034969     5.616409454    -7.983172429
 H        1.241378915     7.619933775    -5.857312286
 C        0.468768327     8.921859470    -4.295605301
 C        0.800577758     6.449449777    -4.079781804
 H       -6.202660482    11.855755163     0.261341387
 C       -6.484610360    13.761618078    -0.738907559
 C       -6.303700241    11.540987695    -1.885491852
 H       -3.941474030    14.295810889     1.093041020
 C       -4.052453947    12.526299780     2.347616830
 C       -1.962864190    13.421301557     1.295041868
 H       -0.158518479    -1.913634688    -1.546562969
 C       -2.159204094    -1.066306068    -1.581615168
 C       -0.197925436    -0.181731161    -2.858729784
 H       -1.774242240    -0.930545197     1.437703098
 C       -0.188133522    -2.401136245     1.589010591
 C       -0.277337070    -0.236015022     2.847688459
 H      -12.159542274     4.395663973     5.117917515
 H      -12.989553082     3.358120584     3.967579420
 H      -13.315752409     5.085148105     3.963357103
 H      -11.222050787     4.372535576     0.835829775
 H      -12.759048085     5.056250317     1.393384452
 H      -12.448620733     3.331644232     1.545949371
 H       -9.352271830     4.000361684     5.229429182
 H       -8.383901837     5.007026109     6.294762322
 H       -7.908828021     4.830157196     4.611805853
 H       -9.308641995     8.375775583     5.036148166
 H       -7.884311586     7.469197286     4.493766047
 H       -8.358880194     7.448298414     6.187360141
 H       -3.292758379     5.197836485    -6.771764569
 H       -2.406237674     4.239465131    -7.949066211
 H       -2.790841503     5.915920324    -8.313919815
 H        0.968247820     5.810165299    -7.603433535
 H       -0.238026567     6.335084007    -8.791924142
 H       -0.008521217     4.624414773    -8.455884269
 H        0.333692323     9.798508623    -4.944127018
 H        1.436870743     9.056533675    -3.794157074
 H       -0.301139052     8.977574516    -3.510595295
 H        0.906332415     5.471677151    -4.566820045
 H        0.065303177     6.341221667    -3.268594575
 H        1.766101826     6.656521337    -3.596587038
 H       -6.251177919    14.393446791     0.127309939
 H       -7.579535975    13.666741150    -0.761426027
 H       -6.206628710    14.319978347    -1.644087079
 H       -5.946830114    10.501650379    -1.860283216
 H       -5.994287449    11.977263882    -2.846191559
 H       -7.401316909    11.492681815    -1.908706099
 H       -5.147822935    12.462178341     2.349181153
 H       -3.775154000    13.057509741     3.269516243
 H       -3.656609795    11.505389297     2.452704909
 H       -1.487239695    13.986815073     0.482035288
 H       -1.441995889    12.455995495     1.375167560
 H       -1.741254161    13.967896422     2.222372026
 H       -2.540284624    -1.655284831    -0.737696550
 H       -2.463385629    -1.603076123    -2.491936598
 H       -2.700142287    -0.109369800    -1.595255481
 H        0.890660424    -0.088041999    -2.962035542
 H       -0.631887969     0.823528832    -2.961531774
 H       -0.540502287    -0.755321317    -3.731896355
 H       -0.478763138    -2.986034956     0.706832009
 H       -0.647037051    -2.901762709     2.453994369
 H        0.897715035    -2.504110797     1.715816716
 H       -0.618023877     0.807967055     2.899307072
 H        0.803011562    -0.239981796     3.045165962
 H       -0.748270939    -0.755628431     3.694210494

