187   

Si        0.000000000     0.000000000     0.000000000
 C        1.865203279     0.000000000     0.000000000
 C       -0.676329432     1.712305788     0.000000000
 C        0.135511962     2.809401125    -0.304916806
 C       -0.388042378     4.102231859    -0.301755451
 C       -1.733348014     4.327800603     0.000866023
 C       -2.546496442     3.226981314     0.302826475
 C       -2.026583196     1.935599712     0.301748741
 C       -2.324222081     5.661873184     0.016321789
 C       -1.657283450     6.797144773    -0.252313307
 C       -2.247830068     8.131370273    -0.236950965
 C       -3.593467806     8.356666859     0.065776395
 C       -4.116613938     9.649403996     0.068848317
 C       -3.306042706    10.744481473    -0.246197888
 C       -1.956852418    10.521826644    -0.552375924
 C       -1.435027871     9.231225483    -0.542295305
Si       -3.969271142    12.459372967    -0.249915119
 C       -3.166042287    13.500924983    -1.520694434
 C       -2.679148134    13.032878092    -2.677689866
 C       -2.036092967    13.866589347    -3.695110321
 C       -1.565547452    13.256414870    -4.868773923
 C       -0.950224402    13.999080200    -5.861694520
 C       -0.814477085    15.396638223    -5.721650730
 C       -1.279286671    16.009417974    -4.547342680
 C       -1.862902380    15.243382553    -3.543294275
 N       -0.178117618    16.107766550    -6.765086405
 C       -0.743501470    15.892720056    -8.117447997
 C        0.157503325    17.514743758    -6.491449094
 C       -2.266784496    15.695533353    -8.186279286
 C       -3.053173716    16.896819491    -7.631416605
 N       -4.458366512    16.577380057    -7.325348139
 C       -5.286619643    16.207488940    -8.398524515
 C       -5.046422997    16.719163421    -9.692099376
 C       -5.860419957    16.357179895   -10.752918642
 C       -6.969757930    15.520794030   -10.564985905
 C       -7.226103383    15.041493683    -9.277480290
 C       -6.409745665    15.378915649    -8.206311189
 C       -4.613225315    15.817371913    -6.072578726
 C       -7.795666878    15.170216159   -11.720867090
 C       -8.877012516    14.380969109   -11.661648365
Si       -9.909805295    13.942008017   -13.104372856
 C       -8.934215130    13.904776416   -14.663958579
 C       -7.592482159    13.506870624   -14.634054822
 C       -6.837507745    13.472364137   -15.805243120
 C       -7.407702946    13.820485368   -17.033082851
 C       -8.753283457    14.209253577   -17.061981677
 C       -9.509366737    14.248897743   -15.892946451
 C       -6.656524494    13.799185624   -18.283867085
 C       -5.364318008    13.447168176   -18.394176022
 C       -4.612838148    13.425748290   -19.644739804
 C       -5.180607616    13.777501666   -20.871937636
 C       -4.424937446    13.742724426   -22.043789627
 C       -3.080270929    13.360554696   -22.012017489
 C       -2.508048766    13.007606387   -20.782203535
 C       -3.266461406    13.037770734   -19.615343112
Si       -2.069152268    13.309398968   -23.549452755
 C       -2.928216270    14.168146328   -24.965118772
 C       -0.396982637    14.145363346   -23.190267413
 C       -1.748664661    11.497762534   -24.037400970
 C      -10.651572863    12.215110742   -12.810451181
 C      -11.330833806    15.199263716   -13.247366271
 C       -5.842793714    12.444504519    -0.581715506
 C       -3.655314240    13.239617871     1.455925192
 C       -0.616042041    -0.921227290    -1.547349938
 C       -0.656303233    -0.903795188     1.541505642
 H        1.195507355     2.695946937    -0.548506953
 H        0.266049460     4.939026798    -0.540142398
 H       -3.597202718     3.380413405     0.541586140
 H       -2.709233376     1.116872692     0.546342462
 H       -3.388017481     5.688065535     0.270093337
 H       -0.593363571     6.770949417    -0.505848305
 H       -4.246558420     7.519936083     0.306292959
 H       -5.174536883     9.762711520     0.320656410
 H       -1.276346192    11.342325173    -0.804275418
 H       -0.383564431     9.077748606    -0.778485874
 H       -3.122062436    14.572343414    -1.273073455
 H       -2.718333123    11.968786882    -2.951705494
 H       -1.676771214    12.178646428    -4.998091593
 H       -0.560655351    13.508749268    -6.750814924
 H       -1.186885663    17.081391177    -4.404633624
 H       -2.200834859    15.737784570    -2.631517412
 H        0.825589604    17.884110559    -7.289661025
 H        0.729607473    17.577008370    -5.548033739
 H       -0.711326829    18.187672453    -6.424568685
 H       -3.847968279    16.125239922    -5.337368128
 H       -4.524371160    14.726339420    -6.205270983
 H       -5.598859570    16.049344602    -5.630573433
 H       -4.215978703    17.395934133    -9.868511230
 H       -5.639825874    16.743727722   -11.748956347
 H       -8.083262106    14.389685200    -9.102142327
 H       -6.647066992    14.985614866    -7.222972961
 H       -7.437051589    15.616437252   -12.659546925
 H       -9.221414165    13.955557694   -10.707089599
 H       -7.093611536    13.218137264   -13.702425702
 H       -5.794207092    13.166358402   -15.754855206
 H       -9.216784292    14.483006996   -18.007657537
 H      -10.554395465    14.558694606   -15.977965016
 H       -7.228909204    14.099071782   -19.166514356
 H       -4.792108849    13.146561245   -17.511548706
 H       -6.224317797    14.082102398   -20.923355657
 H       -4.924896927    14.027669967   -22.973638942
 H       -1.461758828    12.701097445   -20.696440108
 H       -2.805039925    12.757963669   -18.670183626
 H       -0.441318588    16.733348126    -8.778866440
 H       -0.240963175    14.982173945    -8.526273154
 H       -2.566521752    15.503171236    -9.235268852
 H       -2.555266467    14.777325493    -7.635199208
 H       -2.582479118    17.273067761    -6.693963061
 H       -3.024961642    17.749647920    -8.345251391
 H        2.263936207    -1.028752280     0.054392800
 H        2.260728806     0.555226964     0.870061358
 H        2.274966431     0.467117754    -0.912666256
 H       -2.297224981    14.170444867   -25.871796766
 H       -3.150408870    15.221088641   -24.713294974
 H       -3.881390667    13.675336530   -25.225176443
 H        0.077877048    13.543463269   -22.361614288
 C        0.565527869    14.134297611   -24.391158160
 C       -0.557231352    15.592005720   -22.688903556
 H       -1.185237682    11.540550211   -25.014112683
 C       -0.885519693    10.726883543   -23.022742416
 C       -3.051904847    10.712094791   -24.272684254
 H      -11.244635426    12.288906746   -11.853640212
 C      -11.605567299    11.767307597   -13.931350055
 C       -9.566379953    11.140331896   -12.618097688
 H      -11.974237429    14.848433088   -14.104924943
 C      -12.213549847    15.260379262   -11.987729880
 C      -10.826827198    16.616728547   -13.572168309
 H       -6.303708246    11.839786152     0.251668213
 C       -6.474619351    13.847812350    -0.554509711
 C       -6.193112734    11.766806662    -1.918563056
 H       -4.087527479    14.280536092     1.408152653
 C       -4.351430908    12.484607387     2.601512984
 C       -2.154115574    13.359018652     1.774312867
 H       -0.121779901    -1.935074110    -1.515982632
 C       -2.140084762    -1.134645797    -1.571698150
 C       -0.194772469    -0.225736850    -2.855000383
 H       -1.780916133    -0.906218887     1.443260941
 C       -0.189984499    -2.367265315     1.640001790
 C       -0.299328581    -0.174400677     2.849282469
 H        0.788587270    13.124813606   -24.760057674
 H        1.530462569    14.576023386   -24.102539558
 H        0.199023522    14.727022481   -25.239725504
 H       -1.193372963    15.673697014   -21.795855927
 H       -0.968980500    16.267046081   -23.450805057
 H        0.422008368    16.004251014   -22.406786205
 H        0.099352409    11.180249250   -22.853838611
 H       -0.694405246     9.708124428   -23.390518699
 H       -1.376655586    10.611407849   -22.046224730
 H       -3.691519839    11.150293993   -25.049573829
 H       -3.658784528    10.608479412   -23.361602316
 H       -2.820927913     9.690095959   -24.605746343
 H      -12.465883250    12.435487983   -14.064316806
 H      -12.020517352    10.775944030   -13.698538615
 H      -11.105302914    11.667713789   -14.905359420
 H       -8.873482412    11.362172449   -11.794853454
 H       -8.964339396    10.975169086   -13.523271508
 H      -10.030990480    10.173584454   -12.378255833
 H      -12.676292604    14.298779191   -11.732316036
 H      -13.041482834    15.966909295   -12.143530844
 H      -11.669020628    15.617171438   -11.101973471
 H      -10.234030000    16.669245365   -14.495825261
 H      -10.216953474    17.047901366   -12.764603299
 H      -11.677828650    17.297619355   -13.712926810
 H       -6.332808352    14.371738851     0.399322031
 H       -7.561663545    13.772564644    -0.702703994
 H       -6.100450984    14.500471940    -1.355746145
 H       -5.827051578    10.733370568    -1.993847031
 H       -5.808893408    12.316878338    -2.790022633
 H       -7.284017087    11.715871029    -2.041850293
 H       -5.442898745    12.441506842     2.495548350
 H       -4.156135173    12.990065803     3.558536543
 H       -3.985711433    11.454422647     2.720494046
 H       -1.593097126    13.935394842     1.026174396
 H       -1.660961257    12.381590194     1.878647433
 H       -2.012017958    13.877643334     2.733128366
 H       -2.514246981    -1.705682688    -0.712619649
 H       -2.424363222    -1.707125678    -2.466741602
 H       -2.702589611    -0.191627795    -1.621549756
 H        0.891616387    -0.106258272    -2.955686508
 H       -0.651604218     0.766953282    -2.976904626
 H       -0.519309074    -0.821564301    -3.720101320
 H       -0.472003735    -2.973185136     0.769284689
 H       -0.652765697    -2.850370833     2.512894296
 H        0.895338941    -2.462894347     1.776703061
 H       -0.652421585     0.866483527     2.875806849
 H        0.779496559    -0.162705315     3.053735538
 H       -0.770643070    -0.680146158     3.703996073

