187   

Si        0.000000000     0.000000000     0.000000000
 C        1.865376386     0.000000000     0.000000000
 C       -0.677132322     1.711764529     0.000000000
 C        0.142046632     2.812330624     0.270396483
 C       -0.382522392     4.104626447     0.267515146
 C       -1.736424080     4.325875388     0.002414629
 C       -2.556785553     3.221558998    -0.264724623
 C       -2.035624522     1.930682166    -0.266377810
 C       -2.327820449     5.659849814    -0.011006913
 C       -1.651905016     6.797115140     0.224576985
 C       -2.239009427     8.132710418     0.212187970
 C       -3.592213464     8.360216050    -0.052248832
 C       -4.110324491     9.655087102    -0.053565268
 C       -3.286238202    10.750529034     0.223089622
 C       -1.928968678    10.525164555     0.489616160
 C       -1.412548569     9.232538193     0.478562622
Si       -3.939879094    12.470368741     0.228934657
 C       -3.061132090    13.526479214     1.436010578
 C       -2.515991059    13.072316024     2.572606024
 C       -1.811726865    13.912331174     3.542242149
 C       -1.284411606    13.315298081     4.696803504
 C       -0.609158439    14.063648074     5.646443299
 C       -0.388610967    15.443935666     5.445156747
 C       -0.914792589    16.042961150     4.285287898
 C       -1.632293877    15.286374427     3.366713499
 N        0.298956308    16.188582851     6.419926694
 C        1.359044547    15.495742015     7.175611894
 C        0.616678449    17.586599590     6.092238110
 C        2.455538638    14.844933234     6.314943216
 C        3.571250070    15.816345337     5.892712064
 N        4.666717153    15.969312365     6.867194872
 C        5.360877303    14.809102996     7.250435706
 C        5.490507200    13.732917951     6.345392118
 C        6.172619691    12.584834171     6.712879578
 C        6.795533338    12.478993028     7.964834002
 C        6.693567677    13.557133226     8.847458656
 C        5.995766862    14.707914236     8.503231867
 C        4.394523254    16.963307598     7.916584084
 C        7.502277939    11.242063504     8.299524576
 C        8.133480959    11.024820261     9.461207988
Si        9.015535634     9.477698313     9.875644896
 C        9.708880397     8.656334884     8.382858253
 C       10.142335889     9.430346900     7.298268521
 C       10.669056393     8.821399702     6.162461169
 C       10.788682598     7.427372966     6.086331209
 C       10.363720208     6.658469546     7.173204669
 C        9.831466124     7.265012670     8.310497951
 C       11.346823632     6.835505758     4.875036255
 C       11.510926274     5.517235139     4.673339991
 C       12.068977476     4.924727475     3.462339296
 C       12.494485271     5.691464059     2.374496584
 C       13.022234234     5.082880501     1.235765735
 C       13.142768053     3.691540341     1.163863854
 C       12.717431842     2.920173445     2.253975200
 C       12.185088897     3.530172368     3.386399441
Si       13.837194277     2.873420780    -0.331904870
 C       14.698915024     4.097044203    -1.445394691
 C       15.057560166     1.526144837     0.233254535
 C       12.430318430     2.041333726    -1.307225443
 C       10.444834382     9.901273523    11.057588068
 C        7.810688286     8.306323496    10.768113378
 C       -3.706646755    13.217995177    -1.504692654
 C       -5.795511538    12.466838428     0.648155600
 C       -0.657643047    -0.901681751    -1.542092456
 C       -0.611128882    -0.924446821     1.547606128
 H        1.208512424     2.702470662     0.486149716
 H        0.277684719     4.944522827     0.476694534
 H       -3.614133003     3.371693502    -0.474247187
 H       -2.723573441     1.108908575    -0.484160660
 H       -3.398483863     5.684086125    -0.233176202
 H       -0.580762016     6.771148263     0.446644623
 H       -4.255419735     7.523482521    -0.262784101
 H       -5.175091491     9.770368190    -0.273290512
 H       -1.237161907    11.345580841     0.709509850
 H       -0.354873378     9.077421993     0.683537786
 H       -3.022475704    14.593301889     1.170043835
 H       -2.551131408    12.012811716     2.865520111
 H       -1.418776917    12.244566577     4.859354755
 H       -0.247508669    13.577221641     6.548202208
 H       -0.775937461    17.101391690     4.093228276
 H       -2.044498989    15.779390523     2.485092261
 H        1.148581301    18.061165744     6.933291467
 H       -0.327691533    18.147406764     5.958078913
 H        1.226317839    17.700543204     5.180960263
 H        3.834351017    17.815108456     7.497176773
 H        5.355170476    17.368073754     8.287310380
 H        3.829352747    16.557227465     8.771523096
 H        5.049948509    13.793406444     5.354184222
 H        6.237931252    11.755460575     6.006617777
 H        7.169351715    13.502640025     9.827801929
 H        5.942854278    15.519757892     9.220630624
 H        7.472657100    10.496321004     7.491904341
 H        8.140976341    11.783870661    10.257709060
 H       10.078440063    10.523950691     7.304387112
 H       10.993869934     9.438542671     5.326730768
 H       10.446167107     5.573807929     7.140333910
 H        9.516792418     6.610722330     9.127994929
 H       11.637502427     7.556540127     4.105299537
 H       11.220393762     4.796137631     5.442929717
 H       12.415907255     6.776630958     2.407140922
 H       13.336469150     5.735166192     0.416232447
 H       12.787864911     1.828778910     2.254474644
 H       11.858252921     2.914218468     4.221986996
 H        1.804933987    16.211423136     7.900172018
 H        0.863147884    14.715886404     7.802956211
 H        2.893471491    13.988446756     6.867778471
 H        2.001817237    14.393321006     5.408815901
 H        4.025035892    15.473648157     4.931542481
 H        3.151569524    16.821916271     5.671431228
 H        2.263203456    -1.030051904    -0.031742278
 H        2.275160512     0.486799035     0.902391339
 H        2.261326753     0.535743307    -0.881908194
 H       15.146508710     3.592445568    -2.320227113
 H       15.514140995     4.615172422    -0.908233913
 H       14.003300362     4.865679792    -1.825186713
 H       14.453218951     0.802038668     0.853578695
 C       15.684839648     0.738700211    -0.930843456
 C       16.181605541     2.085212493     1.124265834
 H       12.915035099     1.603600446    -2.227400698
 C       11.742683329     0.896715192    -0.541567823
 C       11.355145181     3.043763324    -1.765165845
 H        9.971718382    10.390524796    11.957191394
 C       11.218953563     8.661702119    11.538658318
 C       11.436821170    10.900658618    10.435775806
 H        8.413446868     7.398054913    11.058784061
 C        7.215920440     8.911541758    12.052239054
 C        6.660600739     7.846166906     9.854467925
 H       -4.131307219    14.261856415    -1.454558298
 C       -2.222283802    13.323811640    -1.898361110
 C       -4.461004604    12.446854683    -2.601693406
 H       -6.296248555    11.851026514    -0.153621466
 C       -6.084989831    11.808893179     2.009175864
 C       -6.424498721    13.871470487     0.629118576
 H       -1.782101645    -0.904893907    -1.442283581
 C       -0.303476418    -0.169171389    -2.848944901
 C       -0.189885518    -2.364380813    -1.644406537
 H       -0.116231624    -1.937903559     1.511960032
 C       -0.186256916    -0.231302924     2.855216682
 C       -2.134854586    -1.140123256     1.576963645
 H       14.942818133     0.248416660    -1.574093237
 H       16.327699267    -0.062587520    -0.538064869
 H       16.325411634     1.358968233    -1.571709104
 H       15.808371573     2.619453338     2.009798128
 H       16.856228288     2.765568810     0.587824631
 H       16.806807630     1.263779332     1.502311244
 H       12.428431071     0.088286095    -0.258219184
 H       10.969272905     0.434913246    -1.172559558
 H       11.229463617     1.239379482     0.368021035
 H       11.751525399     3.853387513    -2.391346051
 H       10.816608573     3.505709701    -0.925161493
 H       10.595557720     2.530452629    -2.372056957
 H       10.593514060     7.939093578    12.077990179
 H       12.012917428     8.962027939    12.237779540
 H       11.719859550     8.125481218    10.719800008
 H       10.966801276    11.840787953    10.116170224
 H       11.973117831    10.486824889     9.569559693
 H       12.206748091    11.174830778    11.170813530
 H        7.974535495     9.198676962    12.791356698
 H        6.567842032     8.174966559    12.548783081
 H        6.586502192     9.791213281    11.857622508
 H        7.003692662     7.347765445     8.937139999
 H        5.998623602     8.671014717     9.553123256
 H        6.026962178     7.119109170    10.381388025
 H       -1.623819700    13.913100447    -1.190302957
 H       -2.125245040    13.821568989    -2.873570723
 H       -1.738223973    12.342268004    -2.005618302
 H       -5.545854360    12.408840382    -2.440451288
 H       -4.103947831    11.413821560    -2.721579133
 H       -4.312730940    12.936040729    -3.575339696
 H       -5.718173417    10.775616564     2.082212899
 H       -7.169018067    11.763983533     2.184318712
 H       -5.659023696    12.370091315     2.853797652
 H       -6.326068896    14.380649768    -0.337915374
 H       -6.011088939    14.534784482     1.401916984
 H       -7.503361511    13.802127551     0.830164071
 H       -0.656857915     0.871728853    -2.872231689
 H       -0.776650829    -0.672903054    -3.703802410
 H        0.774853568    -0.156825613    -3.055704081
 H       -0.469492490    -2.972465738    -0.774453588
 H        0.895296377    -2.458158537    -1.783370348
 H       -0.653707296    -2.846082285    -2.517491253
 H        0.900274707    -0.109604197     2.952101817
 H       -0.506412608    -0.829963055     3.720014113
 H       -0.644565041     0.760264154     2.981040033
 H       -2.511928904    -1.705225870     0.715314580
 H       -2.698053409    -0.198124636     1.636369897
 H       -2.414433306    -1.719574967     2.468988961

