187   

Si        0.000000000     0.000000000     0.000000000
 C        1.864950332     0.000000000     0.000000000
 C       -0.680350377     1.710593512     0.000000000
 C        0.067176846     2.781417803     0.501103066
 C       -0.455225914     4.074786456     0.497689171
 C       -1.736422690     4.326126711    -0.000083658
 C       -2.486562213     3.251189530    -0.495565711
 C       -1.968192412     1.959308244    -0.492877189
 C       -2.327191792     5.659795256    -0.025553865
 C       -1.725138546     6.777414106     0.415421766
 C       -2.327140236     8.106617534     0.384470015
 C       -1.592492931     9.193951762     0.876245346
 C       -2.128622844    10.479152760     0.865678296
 C       -3.417314349    10.705691769     0.366360437
 C       -4.152444282     9.622491241    -0.126305157
 C       -3.609844545     8.338229748    -0.119863117
Si       -4.136747572    12.398822084     0.346968646
 C       -5.948673778    12.291886444     0.131696655
 C       -6.675351240    12.972664298    -0.764034230
 C       -8.128021945    12.854976744    -0.900883775
 C       -8.783021855    13.618521948    -1.875939984
 C      -10.156926175    13.543583794    -2.046045928
 C      -10.939044558    12.730262139    -1.199171996
 C      -10.280228196    11.963789817    -0.216157633
 C       -8.899120099    12.014173372    -0.092073124
 N      -12.331760484    12.642337092    -1.356960472
 C      -13.012513641    13.697842204    -2.122427249
 C      -13.105456327    12.190005337    -0.187639656
 C      -13.020690999    15.060794848    -1.410525118
 C      -13.595359212    16.142513316    -2.340110730
 N      -13.848806831    17.423363023    -1.661635878
 C      -14.871265928    17.468406671    -0.698783569
 C      -15.887914343    16.490893326    -0.667667840
 C      -16.889984134    16.549138340     0.288758873
 C      -16.955118989    17.602081520     1.210626793
 C      -15.964940066    18.588317523     1.158478063
 C      -14.942128399    18.533334614     0.222404716
 C      -12.612315792    18.161233163    -1.348906447
 C      -18.034640587    17.613916731     2.199259464
 C      -18.193792405    18.568189121     3.125531330
Si      -19.520255796    18.632111325     4.380777517
 C      -18.792909536    18.916095652     6.046288461
 C      -17.445364315    18.625135322     6.290887905
 C      -16.895959295    18.840676815     7.552530364
 C      -17.679964487    19.340460680     8.600418429
 C      -19.026644670    19.623631810     8.353874460
 C      -19.579061902    19.413339847     7.091477601
 C      -17.059446592    19.549667878     9.904593380
 C      -17.697807876    20.026042383    10.986915075
 C      -17.079908455    20.236182104    12.291949274
 C      -15.734787837    19.955011412    12.544069726
 C      -15.185580051    20.171438123    13.807938351
 C      -15.970503142    20.681416548    14.846743286
 C      -17.320046291    20.965073314    14.596134019
 C      -17.866667222    20.742387486    13.335535774
Si      -15.261623552    20.973006859    16.520568651
 C      -13.398107981    20.892748326    16.499887626
 C      -15.839959987    22.683760839    17.122836122
 C      -15.918205648    19.653869526    17.725564049
 C      -20.692877945    20.067321558     3.948573084
 C      -20.520616274    17.014869079     4.409008325
 C       -3.771289881    13.255829212     2.006135009
 C       -3.335934342    13.405688956    -1.053366483
 C       -0.644449313    -0.922928729    -1.536019650
 C       -0.628428747    -0.909734218     1.549340264
 H        1.075534949     2.646497798     0.901969772
 H        0.148038383     4.891639639     0.889511805
 H       -3.487244101     3.424886197    -0.886970445
 H       -2.601628391     1.161380956    -0.890313648
 H       -3.337359632     5.702116366    -0.444557007
 H       -0.715876380     6.739439999     0.834619152
 H       -0.591185122     9.035130850     1.271500568
 H       -1.509680473    11.288877043     1.261536103
 H       -5.162434432     9.742271065    -0.532394651
 H       -4.200082331     7.512034471    -0.512200429
 H       -6.428823667    11.596333564     0.840416985
 H       -6.230508319    13.678434182    -1.477596649
 H       -8.203942951    14.277358503    -2.524060259
 H      -10.621255435    14.129362593    -2.833164535
 H      -10.843189536    11.312044924     0.444571058
 H       -8.414022926    11.394604524     0.664611011
 H      -14.187074654    12.272713359    -0.385092700
 H      -12.878207772    12.759364954     0.729091869
 H      -12.893671550    11.120421854    -0.006188311
 H      -11.842270548    17.963571735    -2.112885229
 H      -12.192368606    17.905580154    -0.361884662
 H      -12.821750820    19.246081344    -1.378722669
 H      -15.890825302    15.673617493    -1.382112512
 H      -17.648413456    15.765789945     0.310214000
 H      -15.991434816    19.421554996     1.863313234
 H      -14.196843673    19.322545564     0.212013766
 H      -18.709731553    16.752782506     2.110903102
 H      -17.502283103    19.425758895     3.181180924
 H      -16.787352844    18.228092563     5.511014487
 H      -15.845284631    18.614205786     7.723850891
 H      -19.657558764    20.012765724     9.150750290
 H      -20.637251366    19.654540467     6.958262157
 H      -15.999124838    19.285499625     9.954709078
 H      -18.758368449    20.289637270    10.935853379
 H      -15.101375692    19.561248531    11.751296990
 H      -14.127641718    19.931139431    13.944945325
 H      -17.981534278    21.365943752    15.369399594
 H      -18.917137304    20.966947074    13.160678645
 H      -12.531091090    13.776748950    -3.124205429
 H      -14.055787693    13.359326250    -2.321649286
 H      -13.612919122    15.001247295    -0.476898931
 H      -11.997574631    15.334033362    -1.088526410
 H      -12.898819739    16.333329256    -3.188949943
 H      -14.545474054    15.798245561    -2.809799633
 H        2.262706163    -1.029366811    -0.048768547
 H        2.276814594     0.473194284     0.908358619
 H        2.258922789     0.550692264    -0.873769997
 H      -12.978896400    21.118170047    17.496799224
 H      -12.977928841    21.627849156    15.789577474
 H      -13.034772650    19.892777013    16.204886185
 H      -16.967270197    22.634654282    17.156974673
 C      -15.341319311    23.039105080    18.534839912
 C      -15.447366766    23.813023401    16.153017771
 H      -15.407249909    19.859613746    18.710377204
 C      -17.438596169    19.728251646    17.953619988
 C      -15.554972776    18.222856311    17.288620806
 H      -21.506148560    20.051021575     4.730523814
 C      -19.996470349    21.438173939     4.016238794
 C      -21.355213523    19.907714324     2.568962650
 H      -20.854520103    16.838313069     3.345629509
 C      -19.672753946    15.808781232     4.853436810
 C      -21.776807149    17.088242069     5.295349397
 H       -2.647390665    13.321456229     2.081379805
 C       -4.339007968    14.683865113     2.083716079
 C       -4.280876206    12.445975635     3.211680646
 H       -3.890781654    14.387894842    -1.084373069
 C       -1.845865301    13.709531542    -0.815699850
 C       -3.487461006    12.724126610    -2.425681035
 H       -1.769521472    -0.931366830    -1.444666544
 C       -0.282557964    -0.206818120    -2.849768885
 C       -0.170503719    -2.385247630    -1.616053760
 H       -0.158690633    -1.934851929     1.516418569
 C       -0.189242415    -0.224811636     2.856458045
 C       -2.157542187    -1.084712820     1.572827742
 H      -15.643018263    22.310882669    19.298710477
 H      -15.762031028    24.005513903    18.848870400
 H      -14.250008518    23.147986927    18.588890095
 H      -15.816665587    23.654210232    15.129672061
 H      -14.362114357    23.968810997    16.092219625
 H      -15.878460104    24.766469243    16.490125115
 H      -17.774255318    20.696603068    18.345636782
 H      -17.743833098    18.975517973    18.695162910
 H      -18.017152311    19.512564604    17.044306378
 H      -14.474698491    18.059093458    17.184451976
 H      -16.028452893    17.933002768    16.339506827
 H      -15.903968040    17.499498130    18.039476959
 H      -19.530779404    21.642882298     4.990626031
 H      -20.729159072    22.241106241     3.852106077
 H      -19.223778064    21.564214877     3.245439137
 H      -21.944229836    18.986669592     2.472417357
 H      -20.631037823    19.927414571     1.741743744
 H      -22.051840913    20.738528384     2.387190772
 H      -18.772068523    15.655595859     4.243553331
 H      -20.260882319    14.883866107     4.774486822
 H      -19.349826292    15.879532399     5.902339390
 H      -22.488200001    17.861950797     4.979852378
 H      -21.543289951    17.256999811     6.356099301
 H      -22.323043290    16.134733237     5.251910437
 H       -3.952900776    15.349115024     1.300792510
 H       -4.065445398    15.146314865     3.042850770
 H       -5.436932226    14.710942812     2.031520017
 H       -3.882787322    11.421996301     3.247970083
 H       -5.376727253    12.378013639     3.249607899
 H       -3.969358753    12.929065489     4.148733361
 H       -1.658483059    14.282896442     0.101003072
 H       -1.450411957    14.317149103    -1.642735622
 H       -1.224772393    12.803432746    -0.780113191
 H       -4.529775048    12.506956840    -2.696601322
 H       -2.928233088    11.779743900    -2.495639286
 H       -3.091362988    13.375515830    -3.217160601
 H       -0.635012862     0.833832512    -2.889091972
 H       -0.749455794    -0.721776980    -3.701369273
 H        0.797271892    -0.196995079    -3.049378329
 H       -0.457170659    -2.983741731    -0.741723674
 H        0.916278709    -2.477323268    -1.742904486
 H       -0.623872818    -2.879092135    -2.487844006
 H        0.899902562    -0.134228233     2.956883514
 H       -0.529374979    -0.811904519     3.721648683
 H       -0.620623769     0.779263758     2.978097718
 H       -2.543759376    -1.655493605     0.718884717
 H       -2.696654216    -0.127263141     1.609198120
 H       -2.458610404    -1.639740777     2.473214700

