187   

Si        0.000000000     0.000000000     0.000000000
 C        1.865224358     0.000000000     0.000000000
 C       -0.668293667     1.715697467     0.000000000
 C        0.066148554     2.762552989     0.567793967
 C       -0.437076387     4.063086125     0.569461780
 C       -1.686177749     4.346621228     0.010379535
 C       -2.423402123     3.295950487    -0.551351076
 C       -1.924064157     1.996149645    -0.553606899
 C       -2.252787349     5.691098496    -0.010669580
 C       -1.652526867     6.782939527     0.492897675
 C       -2.220234823     8.127015472     0.471232501
 C       -1.483799750     9.178393010     1.033922596
 C       -1.984756187    10.477316208     1.036396321
 C       -3.238044788    10.755480612     0.475761913
 C       -3.973997997     9.708603026    -0.088279625
 C       -3.467534741     8.409218522    -0.092039920
Si       -3.899181570    12.472546737     0.479563293
 C       -5.677544637    12.457278667     0.058618759
 C       -6.268594956    13.221797136    -0.868853162
 C       -7.698684239    13.180820462    -1.177991106
 C       -8.201747206    14.031799883    -2.172343492
 C       -9.546818099    14.032779809    -2.503546906
 C      -10.437811847    13.132147872    -1.880385545
 C       -9.932291284    12.275099877    -0.883567503
 C       -8.590336412    12.322013681    -0.529476610
 N      -11.801317608    13.140413828    -2.222926997
 C      -12.144350462    13.505315291    -3.609498031
 C      -12.626219796    12.037554030    -1.699886588
 C      -11.554737707    12.538845847    -4.652401096
 C      -12.234179982    12.648968474    -6.027144978
 N      -13.688337982    12.363819526    -6.058483351
 C      -14.124687007    11.370928189    -5.149998939
 C      -13.498138405    10.107860012    -5.203182891
 C      -13.886906058     9.100619697    -4.336699129
 C      -14.926475741     9.301168394    -3.415056372
 C      -15.561364958    10.544286985    -3.384622908
 C      -15.179096625    11.568024359    -4.244960564
 C      -14.516427690    13.577661138    -6.148991521
 C      -15.299119682     8.202975256    -2.520512849
 C      -16.273444057     8.285328800    -1.605793517
Si      -16.788628518     6.957445170    -0.460871805
 C      -16.851715593     7.635597788     1.247749029
 C      -16.042887779     8.725324568     1.594832349
 C      -16.081509862     9.247829945     2.884983391
 C      -16.917368098     8.688465629     3.860421532
 C      -17.717300965     7.596441363     3.511747637
 C      -17.685160425     7.073267100     2.219733375
 C      -16.922658599     9.271401181     5.198239587
 C      -17.678553183     8.834469648     6.219821800
 C      -17.684476273     9.416737979     7.557810002
 C      -16.885963155    10.508168589     7.908918149
 C      -16.923461253    11.033050771     9.200712768
 C      -17.768091609    10.480786503    10.168587256
 C      -18.571250170     9.386861838     9.818475477
 C      -18.527249998     8.861456971     8.530208808
Si      -17.830110928    11.161099130    11.878229949
 C      -16.949011584    12.800977140    11.997011731
 C      -19.657896116    11.357836186    12.372065036
 C      -17.004547828     9.937080641    13.079734485
 C      -18.510732451     6.339810983    -0.980137485
 C      -15.575828217     5.494141448    -0.501598894
 C       -3.690839876    13.211629567     2.220696282
 C       -2.917115895    13.530576705    -0.759053714
 C       -0.646154123    -0.924780907    -1.533780807
 C       -0.632433289    -0.904207567     1.550657958
 H        1.049422799     2.602846876     1.019038207
 H        0.155881972     4.860487035     1.013758982
 H       -3.399181424     3.494485463    -0.990688482
 H       -2.546342893     1.217769741    -1.003520078
 H       -3.238091405     5.764644251    -0.480319957
 H       -0.667352680     6.709813894     0.962709593
 H       -0.509268226     8.979879074     1.475514060
 H       -1.366935628    11.256598754     1.491223702
 H       -4.956344770     9.869499844    -0.544328000
 H       -4.057727936     7.611599684    -0.539307972
 H       -6.263072425    11.746058448     0.664748080
 H       -5.716261808    13.945982067    -1.482102954
 H       -7.527465655    14.716629068    -2.687452040
 H       -9.908596045    14.732432938    -3.250902568
 H      -10.583916458    11.572903683    -0.372968747
 H       -8.229228160    11.659143506     0.258793542
 H      -13.662257068    12.124693596    -2.074005922
 H      -12.673416310    12.111869652    -0.598478057
 H      -12.255722307    11.037523202    -1.979931789
 H      -14.185567829    14.170963971    -7.019866150
 H      -14.485023649    14.221151935    -5.256231500
 H      -15.565478845    13.290101937    -6.344175721
 H      -12.711601254     9.929701055    -5.933084482
 H      -13.385147611     8.133438734    -4.382481880
 H      -16.376317183    10.723577487    -2.681104583
 H      -15.697296442    12.520516900    -4.192755995
 H      -14.697625282     7.297449075    -2.671216466
 H      -16.865464547     9.208948956    -1.487283663
 H      -15.367652795     9.199494744     0.874765674
 H      -15.451328676    10.098978506     3.136573151
 H      -18.375291862     7.143431231     4.250983689
 H      -18.333294847     6.219279898     2.005201301
 H      -16.246911762    10.121695448     5.329461111
 H      -18.353930460     7.983984519     6.088459270
 H      -16.223036457    10.959247093     7.172746038
 H      -16.274279065    11.886292292     9.416372763
 H      -19.251598170     8.914935097    10.533056097
 H      -19.157130932     8.010676251     8.277641471
 H      -13.255534584    13.533456629    -3.686236052
 H      -11.803127572    14.546936110    -3.799703348
 H      -10.467912897    12.723483461    -4.763233819
 H      -11.627974964    11.498380503    -4.275166196
 H      -12.048296366    13.655758357    -6.459941651
 H      -11.757977991    11.919329721    -6.726954397
 H        2.263415925    -1.028694387    -0.057918237
 H        2.277361704     0.465518290     0.912104293
 H        2.258413745     0.558633039    -0.869107533
 H      -17.031353505    13.224332901    13.014060669
 H      -17.383756469    13.536276559    11.295805526
 H      -15.874236910    12.705691330    11.762696344
 H      -20.105820850    10.323023549    12.317914898
 C      -19.853793341    11.881572130    13.805896251
 C      -20.437521398    12.259096291    11.397552949
 H      -17.014962890    10.445760330    14.086960198
 C      -17.754267179     8.599706146    13.213950388
 C      -15.539224391     9.645065912    12.707650978
 H      -18.776115465     5.514243354    -0.257832045
 C      -19.588530833     7.432907419    -0.869722528
 C      -18.535219044     5.752740090    -2.402328171
 H      -15.496937971     5.184415469    -1.583861402
 C      -14.169648221     5.883872765    -0.009688377
 C      -16.063327509     4.279143559     0.307507520
 H       -2.580951598    13.219943151     2.423703283
 C       -4.206833896    14.657204204     2.326944389
 C       -4.364997548    12.355750434     3.307835414
 H       -3.441910838    14.529211243    -0.794992925
 C       -1.457000483    13.777980750    -0.340021354
 C       -2.927749487    12.930569502    -2.177150209
 H       -1.771649306    -0.923121370    -1.446860865
 C       -0.272528321    -0.219363978    -2.850088028
 C       -0.184731483    -2.391665761    -1.604581521
 H       -0.170260808    -1.932769041     1.518387639
 C       -0.187865995    -0.221708107     2.857159251
 C       -2.162839980    -1.068107130     1.574485419
 H      -19.385184376    11.246214307    14.568570993
 H      -20.925666358    11.914507706    14.050007382
 H      -19.476755865    12.903594905    13.944086458
 H      -20.389868256    11.913874512    10.354786075
 H      -20.100271046    13.303942095    11.415596332
 H      -21.503160958    12.273324230    11.667355675
 H      -18.793420284     8.713052783    13.547681836
 H      -17.259341021     7.966065399    13.964508664
 H      -17.760126185     8.018988562    12.280843142
 H      -14.909640575    10.543586691    12.674586373
 H      -15.438016102     9.132433048    11.740169325
 H      -15.085683201     8.979931445    13.456539415
 H      -19.657529760     7.878564091     0.132670052
 H      -20.579386648     7.007956785    -1.084866645
 H      -19.442769583     8.251641729    -1.587694197
 H      -17.853847932     4.902376730    -2.534356718
 H      -18.294861758     6.495037037    -3.176961530
 H      -19.542013952     5.378849612    -2.637812617
 H      -13.725595229     6.722008684    -0.563727475
 H      -13.480475454     5.035711413    -0.127296267
 H      -14.150726513     6.148926298     1.057509521
 H      -17.016571222     3.870544919    -0.051295876
 H      -16.171715418     4.493826672     1.380193540
 H      -15.332611078     3.460459551     0.233144444
 H       -3.708997368    15.349395393     1.635816749
 H       -4.025560114    15.048568829     3.338155755
 H       -5.290019483    14.738322633     2.155715374
 H       -4.013983450    11.314221520     3.322018920
 H       -5.459976584    12.336495180     3.220083648
 H       -4.142679308    12.767215868     4.302695399
 H       -1.360413376    14.279705738     0.631127425
 H       -0.962640550    14.432442739    -1.072757394
 H       -0.860203171    12.855893634    -0.304860669
 H       -3.937424649    12.758300713    -2.574540187
 H       -2.385332728    11.975984466    -2.239213881
 H       -2.430811868    13.613339722    -2.880331008
 H       -0.614180381     0.824522432    -2.896664363
 H       -0.741062644    -0.734485971    -3.700674573
 H        0.808165764    -0.221280114    -3.045509656
 H       -0.481823449    -2.983711270    -0.729327777
 H        0.901895887    -2.494052406    -1.724667389
 H       -0.637407659    -2.885404780    -2.476784242
 H        0.901936360    -0.139871292     2.957657494
 H       -0.532754688    -0.805333089     3.722854395
 H       -0.611465751     0.785813196     2.978011187
 H       -2.553065592    -1.638259712     0.721943602
 H       -2.695245397    -0.106785871     1.607959533
 H       -2.468083895    -1.618523899     2.476293232

