187   

Si        0.000000000     0.000000000     0.000000000
 C        1.865111550     0.000000000     0.000000000
 C       -0.674852638     1.712910343     0.000000000
 C        0.079109143     2.776601764     0.507122602
 C       -0.433528144     4.073572138     0.506406369
 C       -1.711317610     4.336517975     0.005470487
 C       -2.467725938     3.269027613    -0.496072034
 C       -1.958902885     1.973058684    -0.496258099
 C       -2.289087607     5.676191839    -0.015855351
 C       -1.673507482     6.783311077     0.432839151
 C       -2.253007998     8.122313299     0.410662156
 C       -3.531233781     8.381519354    -0.091088422
 C       -4.046991837     9.677281909    -0.093339036
 C       -3.300374152    10.740215055     0.424271242
 C       -2.019539262    10.482847519     0.931753704
 C       -1.502163380     9.190559665     0.919456564
Si       -3.950143883    12.461346397     0.436958172
 C       -3.418033909    13.371470823     1.930439712
 C       -3.178270299    12.791508168     3.114437236
 C       -2.752147916    13.513754151     4.313846741
 C       -2.532747440    12.791080572     5.496377333
 C       -2.128904757    13.425800236     6.658763240
 C       -1.883941676    14.816428845     6.664920234
 C       -2.102761413    15.542061935     5.479659199
 C       -2.549999639    14.895715341     4.333784487
 N       -1.474436382    15.436444004     7.860010410
 C       -0.506686912    14.696012982     8.689520267
 C       -1.203436080    16.881407303     7.805017533
 C        0.777038254    14.287365396     7.937060390
 C        1.971670452    14.117891332     8.894385641
 N        2.894710330    15.277825617     8.939591504
 C        2.228089743    16.502311053     9.233028974
 C        1.669229740    16.638127779    10.518728902
 C        1.007384323    17.803757429    10.868525235
 C        0.906274074    18.873958076     9.966064286
 C        1.483573988    18.741349988     8.701272346
 C        2.147422402    17.575047233     8.335244223
 C        3.799548823    15.316040260     7.776238177
 C        0.196142996    20.085666179    10.383126824
 C        0.042683284    21.161437273     9.601152223
Si       -0.826998554    22.706367118    10.046582900
 C       -2.013692006    23.110334084     8.700209781
 C       -2.472316458    22.096928791     7.851290919
 C       -3.371613623    22.386565996     6.826351070
 C       -3.840791548    23.689092661     6.634865264
 C       -3.385160454    24.700218831     7.491527426
 C       -2.483081138    24.415827407     8.513869246
 C       -4.782056809    24.036306617     5.575228333
 C       -5.292402150    23.162403602     4.691087896
 C       -6.233630463    23.505509577     3.630299072
 C       -6.703236735    24.806069235     3.430248495
 C       -7.603198764    25.089173063     2.402862383
 C       -8.057550405    24.073986891     1.555400515
 C       -7.588335364    22.768349805     1.754327941
 C       -6.686542676    22.489786146     2.777495330
Si       -9.245207726    24.430952024     0.194860889
 C      -10.010768781    26.122054973     0.378027793
 C       -8.338022208    24.347743005    -1.476487050
 C      -10.597077318    23.091001852     0.216210899
 C       -1.776059334    22.521196291    11.682625878
 C        0.450660440    24.102156059    10.227947080
 C       -3.287892858    13.375578192    -1.094379892
 C       -5.851480733    12.454567762     0.366614515
 C       -0.646753777    -0.920818352    -1.536034600
 C       -0.629425626    -0.908771725     1.549314954
 H        1.085094022     2.633225000     0.911195418
 H        0.174989560     4.884343610     0.902824289
 H       -3.465804483     3.451550422    -0.889882644
 H       -2.596633911     1.181038360    -0.898400446
 H       -3.297333375     5.732286858    -0.436676685
 H       -0.665227806     6.727851269     0.853484024
 H       -4.136151514     7.569682855    -0.490218146
 H       -5.048954472     9.818571373    -0.507456953
 H       -1.391710951    11.277155137     1.349959153
 H       -0.504066352     9.010252158     1.314000539
 H       -3.321841235    14.459087122     1.796396691
 H       -3.275834229    11.708012800     3.274867020
 H       -2.694491067    11.712376392     5.506088630
 H       -2.001979308    12.847793296     7.569660091
 H       -1.927691686    16.612547489     5.443090920
 H       -2.726620853    15.483194695     3.431875544
 H       -0.974405931    17.256075648     8.820517250
 H       -2.111149621    17.412335710     7.466714325
 H       -0.358125015    17.150284985     7.151006839
 H        4.413305845    14.397800115     7.781092012
 H        4.495069536    16.167170430     7.879477826
 H        3.290370318    15.387619594     6.802790170
 H        1.770639273    15.825449667    11.235350026
 H        0.571189873    17.893248844    11.863634094
 H        1.423851172    19.562033714     7.984410109
 H        2.583789590    17.502093535     7.343093264
 H       -0.202823070    20.027153322    11.403523029
 H        0.467828088    21.188500837     8.582624869
 H       -2.145627187    21.056914743     7.957315899
 H       -3.710261096    21.582634442     6.174980281
 H       -3.739180922    25.720794390     7.359246783
 H       -2.161460048    25.244131827     9.150889175
 H       -5.061686691    25.093131529     5.538917505
 H       -5.012979384    22.105152026     4.729080867
 H       -6.367998236    25.613556976     4.078600658
 H       -7.934742326    26.125680264     2.295664090
 H       -7.909486431    21.934573344     1.123582114
 H       -6.333030257    21.469684074     2.915951624
 H       -0.255767627    15.326684302     9.573945411
 H       -1.017397072    13.794813516     9.097921620
 H        0.597116126    13.352162257     7.375319438
 H        1.012698422    15.041763009     7.161752536
 H        1.621383348    13.929901621     9.934100864
 H        2.565209540    13.220239903     8.611904243
 H        2.263047397    -1.028843086    -0.057873770
 H        2.277112577     0.465096323     0.912416169
 H        2.258858240     0.558287579    -0.869049129
 H      -10.753821948    26.310750192    -0.417342391
 H       -9.253007728    26.923048839     0.321656962
 H      -10.532041039    26.217864645     1.347872459
 H       -9.104374522    24.634979073    -2.253314646
 C       -7.170855349    25.348148248    -1.564471680
 C       -7.811015838    22.944016402    -1.824091771
 H      -10.062648464    22.110095421     0.052756645
 C      -11.325242322    23.009754787     1.570045535
 C      -11.639047559    23.252036392    -0.904877843
 H       -1.020096044    22.169469882    12.443148979
 C       -2.380092843    23.843386937    12.188250969
 C       -2.895823919    21.468039459    11.594697284
 H       -0.134549456    25.021940019    10.520335496
 C        1.489024459    23.828110929    11.329904807
 C        1.184626094    24.405718863     8.909656095
 H       -3.720390918    14.416436198    -1.047246871
 C       -1.753251366    13.495139486    -1.085109062
 C       -3.731345768    12.732681301    -2.419970247
 H       -6.127850142    11.911687020    -0.582878541
 C       -6.477306376    11.698498034     1.552346522
 C       -6.460788568    13.866566465     0.299461375
 H       -1.771910833    -0.925087123    -1.444906629
 C       -0.282310297    -0.205642764    -2.849660450
 C       -0.177669669    -2.384625271    -1.616349589
 H       -0.160821502    -1.934441703     1.516672972
 C       -0.189791535    -0.224346862     2.856537157
 C       -2.158754293    -1.082221639     1.572351489
 H       -7.476472841    26.390655111    -1.408065258
 H       -6.715474913    25.308622532    -2.564443739
 H       -6.364428795    25.127151329    -0.850410413
 H       -8.597443688    22.179704354    -1.861933841
 H       -7.034296994    22.595761781    -1.128756888
 H       -7.346258589    22.954238962    -2.820886887
 H      -10.646728117    22.838376270     2.418103663
 H      -12.032147451    22.167797065     1.568049893
 H      -11.915384440    23.907956521     1.795102514
 H      -11.199937668    23.249685316    -1.910871565
 H      -12.239051293    24.166127426    -0.803875785
 H      -12.350569165    22.413807946    -0.878679926
 H       -1.629523378    24.620929213    12.379296316
 H       -2.898735479    23.677853159    13.143996927
 H       -3.131427345    24.261175064    11.503196400
 H       -2.545533261    20.476829476    11.275941588
 H       -3.705751466    21.764431082    10.912123142
 H       -3.361476270    21.329078245    12.580559794
 H        1.043505403    23.685151745    12.322834920
 H        2.175127410    24.682503659    11.421451728
 H        2.117612617    22.951361450    11.117943910
 H        0.507072632    24.652092053     8.079945074
 H        1.829306319    23.580283620     8.578133047
 H        1.842268340    25.277607998     9.037103554
 H       -1.360096599    13.997002036    -0.190411342
 H       -1.416164557    14.089937377    -1.945801358
 H       -1.249020684    12.521610136    -1.168853020
 H       -4.821164908    12.698183839    -2.544411862
 H       -3.347467852    11.710568002    -2.549744379
 H       -3.343944125    13.314483559    -3.268848654
 H       -6.134508469    10.658206559     1.638880454
 H       -7.569481444    11.654649285     1.438802023
 H       -6.287015858    12.188809409     2.518543612
 H       -6.125400602    14.445288956    -0.570404120
 H       -6.256108203    14.463202480     1.199593878
 H       -7.555359407    13.799463223     0.219014075
 H       -0.632228542     0.835831523    -2.889243739
 H       -0.749910563    -0.719558395    -3.701505933
 H        0.797665458    -0.198398583    -3.048631918
 H       -0.466987234    -2.982598415    -0.742530298
 H        0.908898392    -2.480298051    -1.742442209
 H       -0.632011137    -2.876578314    -2.488722476
 H        0.899427295    -0.135725579     2.957688739
 H       -0.531548746    -0.810618843     3.721656075
 H       -0.619467885     0.780523052     2.977676361
 H       -2.544959667    -1.654345167     0.719289783
 H       -2.697067070    -0.124262345     1.606526687
 H       -2.460843743    -1.635219442     2.473652498

