187   

Si        0.000000000     0.000000000     0.000000000
 C        1.865514778     0.000000000     0.000000000
 C       -0.678204025     1.710206227     0.000000000
 C        0.146689132     2.813075863    -0.240492814
 C       -0.379509595     4.104490575    -0.237811754
 C       -1.735372575     4.323868019     0.016286982
 C       -2.560750035     3.217407958     0.258143261
 C       -2.041152519     1.926244830     0.245627478
 C       -2.328074505     5.655878416     0.029058480
 C       -1.655926487     6.797318556    -0.196332104
 C       -2.262554404     8.123664589    -0.180321106
 C       -3.622085300     8.319614943     0.076375326
 C       -4.168493618     9.601895784     0.083830256
 C       -3.373105293    10.711111065    -0.218961714
 C       -2.013230637    10.517104821    -0.495221677
 C       -1.464074243     9.237983126    -0.468106078
Si       -4.078013299    12.407969267    -0.213525439
 C       -3.224512059    13.506075635    -1.398404619
 C       -2.653311023    13.089702999    -2.536641793
 C       -1.971454111    13.979871324    -3.479366484
 C       -1.408769552    13.430834531    -4.642280097
 C       -0.754830733    14.235852030    -5.561011709
 C       -0.635798116    15.618065354    -5.328145681
 C       -1.196582864    16.172092020    -4.171754537
 C       -1.864764074    15.354996941    -3.265020622
 N        0.051505968    16.385656986    -6.319169920
 C        1.502338076    16.106479265    -6.340533534
 C       -0.248826006    17.828294960    -6.314714474
 C        2.248601312    16.534136407    -5.060708242
 C        3.469447143    15.644460072    -4.761001528
 N        3.231196545    14.573614253    -3.779627073
 C        2.588397185    13.393229761    -4.177503739
 C        2.567743254    12.991281711    -5.529491201
 C        1.927490114    11.820911429    -5.906151772
 C        1.395881763    10.945059519    -4.951348708
 C        1.457212372    11.319741248    -3.605107843
 C        2.027077126    12.523619815    -3.218207989
 C        2.900830753    15.086735758    -2.438289965
 C        0.729577194     9.722665166    -5.401514942
 C        0.188089686     8.819531403    -4.574404452
Si       -0.656809412     7.275483272    -5.066027058
 C       -2.267173843     7.215642712    -4.182026544
 C       -2.914037957     8.410589070    -3.849752776
 C       -4.135078087     8.384854495    -3.179837279
 C       -4.734685933     7.171567506    -2.830175482
 C       -4.085565564     5.977521213    -3.167678268
 C       -2.865423427     5.997662029    -3.839134110
 C       -6.012579235     7.107283265    -2.128424191
 C       -6.721626855     8.186224993    -1.756280086
 C       -7.998980562     8.153424348    -1.055311299
 C       -8.631504779     6.962972773    -0.690054832
 C       -9.854727307     6.983634126    -0.019596234
 C      -10.470005074     8.197662341     0.300654111
 C       -9.835099407     9.393619535    -0.062064157
 C       -8.614411001     9.369679267    -0.728836876
Si      -12.083158152     8.247081169     1.184524003
 C      -12.898426032     6.570094944     1.225029478
 C      -11.800576521     8.836973047     2.972578907
 C      -13.207136694     9.505104501     0.302645125
 C       -0.986606328     7.236239579    -6.938402798
 C        0.420416301     5.780777958    -4.605703841
 C       -5.921669876    12.349145676    -0.691613101
 C       -3.902152097    13.121976582     1.538401600
 C       -0.604039702    -0.905058475    -1.562765447
 C       -0.664422652    -0.910707327     1.532574625
 H        1.217110405     2.705236689    -0.434954053
 H        0.286325745     4.947426728    -0.416254945
 H       -3.620362219     3.366842314     0.456857236
 H       -2.732544416     1.101682103     0.439224743
 H       -3.401915297     5.676483738     0.239164089
 H       -0.584519374     6.784228929    -0.414771904
 H       -4.270689217     7.468156284     0.279388801
 H       -5.233678015     9.689189755     0.318541650
 H       -1.346443931    11.350652075    -0.739413591
 H       -0.405863193     9.103295948    -0.682600015
 H       -3.225869169    14.569285510    -1.115353257
 H       -2.642078389    12.035494247    -2.849935574
 H       -1.479473481    12.356628652    -4.826427878
 H       -0.327528726    13.804299498    -6.465161280
 H       -1.116025093    17.235711019    -3.971186117
 H       -2.300981566    15.804668222    -2.372843723
 H        0.158013295    18.271289046    -7.240495394
 H        0.161074592    18.380476960    -5.456183278
 H       -1.343382690    17.972034427    -6.339252142
 H        3.358719711    16.075782144    -2.277019932
 H        3.328027717    14.405252892    -1.679130685
 H        1.814759363    15.176941934    -2.263925858
 H        3.042982955    13.600135115    -6.292797168
 H        1.873174454    11.564207495    -6.964694274
 H        1.038751218    10.663877295    -2.839132027
 H        2.029592516    12.785226999    -2.164976752
 H        0.716038711     9.613632694    -6.493147143
 H        0.228224911     8.956569088    -3.479963078
 H       -2.488467274     9.390785077    -4.089725078
 H       -4.614025273     9.327991685    -2.919638498
 H       -4.532760475     5.022311245    -2.900790904
 H       -2.400868482     5.035628982    -4.071646177
 H       -6.373280002     6.097604539    -1.916700281
 H       -6.350915785     9.194054246    -1.975428005
 H       -8.173676606     6.005285570    -0.929577415
 H      -10.304503425     6.021058684     0.237801894
 H      -10.270258747    10.371720114     0.161388803
 H       -8.135038090    10.309262915    -1.002742714
 H        1.620953353    15.012152506    -6.516329039
 H        1.935184807    16.612816534    -7.230289775
 H        2.566822097    17.587884476    -5.148891813
 H        1.550288512    16.510890603    -4.199723699
 H        3.878394534    15.201537145    -5.695993415
 H        4.298473846    16.273055111    -4.354218500
 H        2.262846154    -1.030157514     0.034357794
 H        2.262348692     0.537577293     0.880341125
 H        2.274538521     0.484241181    -0.904011612
 H      -13.882564441     6.617677276     1.724631602
 H      -12.285214923     5.829736676     1.767984402
 H      -13.064037617     6.186034502     0.201985508
 H      -12.812352467     8.797623962     3.470374371
 C      -10.847520061     7.913563879     3.753656072
 C      -11.276665164    10.281001222     3.071079995
 H      -12.674343185    10.497877589     0.373079623
 C      -13.398622226     9.179068316    -1.189578610
 C      -14.588179364     9.663543857     0.963064249
 H        0.015317568     7.381930427    -7.435555484
 C       -1.568358230     5.896004325    -7.422346782
 C       -1.919720702     8.373364525    -7.394299665
 H       -0.136272246     4.871638832    -4.977759619
 C        1.802698445     5.800696869    -5.281864569
 C        0.605869485     5.632848133    -3.086243510
 H       -6.376201015    11.518118511    -0.077754201
 C       -6.684830515    13.644920670    -0.364738886
 C       -6.122080114    12.021443744    -2.182107643
 H       -4.350698236    14.156148187     1.504923007
 C       -4.660932144    12.303390720     2.597440089
 C       -2.429515972    13.255475661     1.967002636
 H       -0.089775284    -1.909121936    -1.552209057
 C       -2.123463087    -1.148831833    -1.589286471
 C       -0.200381498    -0.173612148    -2.856616248
 H       -1.788780790    -0.906859194     1.430645844
 C       -0.204530900    -2.376653152     1.623200775
 C       -0.308976306    -0.190783948     2.846123623
 H      -11.191683715     6.872525202     3.803507897
 H      -10.758115894     8.257541794     4.794119428
 H       -9.827511219     7.907406848     3.343168053
 H      -11.944789660    11.019163816     2.609815672
 H      -10.278319991    10.403800631     2.627791625
 H      -11.180216129    10.573475812     4.126938864
 H      -12.451193184     9.107190643    -1.742912639
 H      -13.979531324     9.974349392    -1.678048537
 H      -13.951047761     8.245128040    -1.357776600
 H      -14.534213880     9.967170469     2.016487955
 H      -15.196052524     8.750699336     0.908638313
 H      -15.163179837    10.446136299     0.446888991
 H       -0.909076584     5.039906261    -7.230637251
 H       -1.724063369     5.924492986    -8.510420959
 H       -2.549088321     5.670371301    -6.979586053
 H       -1.557042124     9.374959607    -7.124972578
 H       -2.938533847     8.273291858    -6.992065287
 H       -2.019409835     8.363917164    -8.488444635
 H        1.751990587     5.820324140    -6.377819895
 H        2.364142956     4.893496607    -5.016656381
 H        2.422660308     6.650762017    -4.963472643
 H       -0.350011724     5.575744043    -2.541531339
 H        1.197246594     6.446382213    -2.645871795
 H        1.141392474     4.698914165    -2.861932460
 H       -6.665573314    13.905353722     0.701068295
 H       -7.745584921    13.534214154    -0.633344619
 H       -6.316664309    14.513382625    -0.927071801
 H       -5.629521836    11.091974846    -2.499052716
 H       -5.758686846    12.821118506    -2.845002996
 H       -7.191447596    11.902926539    -2.406674016
 H       -5.739479252    12.232795937     2.404550995
 H       -4.554818394    12.774354853     3.585075367
 H       -4.273791148    11.279246174     2.704395187
 H       -1.830893675    13.874835366     1.285459835
 H       -1.923892291    12.283561992     2.063239019
 H       -2.366138260    13.732975640     2.954931925
 H       -2.486204085    -1.734673698    -0.735284073
 H       -2.396061395    -1.718939666    -2.489404678
 H       -2.704162674    -0.216675343    -1.631062513
 H        0.883414060    -0.032640836    -2.958046386
 H       -0.675681631     0.813326696    -2.954899946
 H       -0.517038733    -0.756832016    -3.733016914
 H       -0.482795177    -2.974940956     0.746046773
 H       -0.674930476    -2.864402750     2.489413812
 H        0.879541159    -2.477151440     1.766293577
 H       -0.658039989     0.851377922     2.877630297
 H        0.769064107    -0.184832041     3.054637779
 H       -0.785797221    -0.699721433     3.695916904

