187   

Si        0.000000000     0.000000000     0.000000000
 C        1.865518490     0.000000000     0.000000000
 C       -0.679564245     1.710918683     0.000000000
 C        0.152180580     2.821240873    -0.174508580
 C       -0.377371431     4.111776498    -0.172183072
 C       -1.748199095     4.321024403    -0.001900583
 C       -2.580840806     3.207131836     0.171369259
 C       -2.054876437     1.918435987     0.174041285
 C       -2.346880120     5.651678337     0.007461153
 C       -1.664681653     6.799707866    -0.142962676
 C       -2.265635519     8.129430572    -0.133251564
 C       -1.435869067     9.245894488    -0.301531894
 C       -1.965050200    10.534261818    -0.299141688
 C       -3.341638167    10.733413558    -0.143552987
 C       -4.173746596     9.620420718     0.021911675
 C       -3.638713420     8.333278821     0.031486719
Si       -4.071058566    12.422054297    -0.136124663
 C       -5.795934591    12.312430952    -0.729608932
 C       -6.872726661    12.835878980    -0.130209698
 C       -8.235051914    12.715397947    -0.654499362
 C       -9.289909198    13.305563757     0.059490463
 C      -10.594684300    13.219267750    -0.394973570
 C      -10.887522290    12.509448791    -1.578378720
 C       -9.835041260    11.924945867    -2.298987292
 C       -8.525708662    12.048520565    -1.846015146
 N      -12.238972557    12.453811255    -1.996246783
 C      -13.182193465    11.907017239    -0.991504255
 C      -12.481160081    11.944833176    -3.356376028
 C      -12.627329632    10.801547045    -0.077677711
 C      -12.151239390     9.561383710    -0.855333793
 N      -11.288096740     8.673048374    -0.056825015
 C      -11.856833571     8.073370131     1.080057584
 C      -13.231485935     7.752301752     1.098695975
 C      -13.799371070     7.161170045     2.215376299
 C      -13.022353625     6.822796153     3.332504101
 C      -11.655364246     7.111190607     3.299749063
 C      -11.072374435     7.716817620     2.194505226
 C       -9.910274727     9.177638327     0.074909090
 C      -13.674874607     6.200306038     4.484783558
 C      -13.037926621     5.834055521     5.605443826
Si      -13.857223090     5.056506029     7.042913950
 C      -15.316553502     4.055813421     6.539481266
 C      -15.301133765     3.379137474     5.312401558
 C      -16.395268752     2.616758742     4.913239607
 C      -17.525499455     2.500045294     5.733281015
 C      -17.534491524     3.168983705     6.960223388
 C      -16.441698675     3.937142599     7.361244851
 C      -18.646949024     1.689467624     5.270571732
 C      -19.788029088     1.498270027     5.954129909
 C      -20.908538489     0.687188643     5.489652628
 C      -20.897789524     0.019057803     4.262592827
 C      -21.991298274    -0.746123709     3.857327733
 C      -23.119263903    -0.864197711     4.675243039
 C      -23.132410807    -0.195376585     5.906917191
 C      -22.041540338     0.571632843     6.306350271
Si      -24.570655928    -1.869978797     4.155441253
 C      -24.171918691    -2.938691148     2.679319543
 C      -25.101665067    -2.953922509     5.627520673
 C      -26.014939325    -0.716272310     3.701468884
 C      -12.602567516     3.914603391     7.903812102
 C      -14.380640485     6.419058651     8.263385556
 C       -3.982945575    13.127737557     1.626596633
 C       -3.096149141    13.564063315    -1.302949848
 C       -0.599520827    -0.930633615    -1.548784393
 C       -0.663166559    -0.895708638     1.542753887
 H        1.231980571     2.720908973    -0.314742814
 H        0.291810296     4.959600152    -0.306587977
 H       -3.651694268     3.348044789     0.306425807
 H       -2.752460882     1.088342777     0.318099550
 H       -3.431582229     5.663406953     0.150455646
 H       -0.580271201     6.788374932    -0.286014507
 H       -0.364300135     9.108320181    -0.432824493
 H       -1.269145478    11.367558183    -0.427755844
 H       -5.257252120     9.718834493     0.148493483
 H       -4.304676056     7.482706687     0.165516741
 H       -5.888392889    11.757748216    -1.679241425
 H       -6.817447888    13.399764903     0.809624050
 H       -9.080180584    13.847544057     0.982267669
 H      -11.400017012    13.704402797     0.152088488
 H      -10.025915309    11.376372944    -3.216206293
 H       -7.720953867    11.599962186    -2.431098733
 H      -13.527941489    12.161661167    -3.634541120
 H      -12.303682661    10.865561805    -3.480503195
 H      -11.844411873    12.495140783    -4.072383351
 H       -9.599003720     9.691989571    -0.852312119
 H       -9.224995130     8.322360526     0.215765908
 H       -9.778638175     9.887695323     0.908092792
 H      -13.857050693     7.971166575     0.238630927
 H      -14.868068171     6.942250245     2.216340466
 H      -11.026575039     6.856105280     4.154097920
 H      -10.006308408     7.919574775     2.210037890
 H      -14.754631206     6.050430205     4.340333961
 H      -11.957650804     6.002260227     5.729578607
 H      -14.443535605     3.430577207     4.632525882
 H      -16.368183887     2.104077544     3.953512957
 H      -18.399525490     3.094443156     7.616288276
 H      -16.507179021     4.436437087     8.331663937
 H      -18.500988221     1.224132293     4.291145586
 H      -19.934684214     1.962934575     6.933488876
 H      -20.030631087     0.091496822     3.608679455
 H      -21.924259784    -1.244952035     2.886556488
 H      -23.986258532    -0.251937491     6.588015709
 H      -22.070728542     1.084682006     7.265731508
 H      -13.502252649    12.772210174    -0.360965258
 H      -14.098255458    11.546293964    -1.506954351
 H      -11.791106061    11.199013085     0.532800573
 H      -13.402024152    10.508303341     0.657989472
 H      -13.019067690     8.975411410    -1.231251727
 H      -11.577483795     9.863712165    -1.761372532
 H        2.262768118    -1.030176348     0.036857716
 H        2.263489372     0.539864665     0.878263065
 H        2.273345341     0.481570130    -0.906085409
 H      -25.033886729    -3.571325661     2.401829531
 H      -23.322636928    -3.612024961     2.895558382
 H      -23.905913164    -2.333037854     1.795353779
 H      -25.368078062    -2.237923046     6.458636440
 C      -26.340307085    -3.819867868     5.336936431
 C      -23.963931833    -3.859288221     6.133104134
 H      -26.841702665    -1.392747918     3.337955337
 C      -26.554491006     0.097212764     4.891477037
 C      -25.657926190     0.255421426     2.561625798
 H      -11.735551967     4.571746156     8.202328705
 C      -13.161430362     3.252736431     9.175350706
 C      -12.070195597     2.819403001     6.962306474
 H      -14.830703086     5.888946950     9.151663631
 C      -13.199494952     7.268240439     8.766480881
 C      -15.450129415     7.353964510     7.670458850
 H       -4.528333883    14.115178573     1.595145736
 C       -4.684150453    12.223619645     2.656982687
 C       -2.543223886    13.393908921     2.101373779
 H       -2.046493046    13.607696737    -0.890668158
 C       -3.020738351    13.015687534    -2.739059565
 C       -3.651503459    14.998623800    -1.342312451
 H       -0.079501887    -1.931889778    -1.519684364
 C       -2.117065370    -1.185317468    -1.575889348
 C       -0.196282440    -0.221058372    -2.854499295
 H       -1.787921813    -0.886853337     1.444651076
 C       -0.209984771    -2.363013070     1.643421795
 C       -0.299818086    -0.167242464     2.849348933
 H      -27.219979568    -3.234819768     5.039082057
 H      -26.631741581    -4.373224527     6.241594623
 H      -26.162329993    -4.575306200     4.560194777
 H      -23.059256363    -3.302060901     6.416011141
 H      -23.666546594    -4.623716003     5.403132146
 H      -24.285006670    -4.400734226     7.034365956
 H      -26.908485245    -0.526871289     5.721708330
 H      -27.417147132     0.700520859     4.572923605
 H      -25.817153781     0.807032372     5.292244028
 H      -25.339556188    -0.249613112     1.640652152
 H      -24.868408728     0.968390587     2.839938446
 H      -26.536467251     0.859184546     2.292466994
 H      -13.475126658     3.974182756     9.940471539
 H      -12.389137136     2.625403930     9.643608927
 H      -14.013336148     2.587777076     8.973076071
 H      -11.603892961     3.216442254     6.050160717
 H      -12.848344211     2.106469060     6.653732126
 H      -11.296664858     2.227409652     7.471599777
 H      -12.426006393     6.680335995     9.276732598
 H      -13.554106736     8.008390461     9.498194576
 H      -12.712336551     7.839886831     7.964026246
 H      -16.356500693     6.827754397     7.340390144
 H      -15.079297493     7.938392007     6.815739617
 H      -15.775074424     8.083534702     8.425290398
 H       -5.735515198    12.014909677     2.416916762
 H       -4.682475716    12.705812681     3.644746865
 H       -4.178717728    11.255592298     2.787172610
 H       -2.004039303    14.116092164     1.475141961
 H       -1.935349510    12.479847679     2.160046962
 H       -2.554733069    13.817833211     3.116188988
 H       -2.599100004    12.002393897    -2.798260408
 H       -2.369769747    13.654848310    -3.352627757
 H       -3.997206503    12.998584647    -3.242365836
 H       -3.651584840    15.492931719    -0.362266868
 H       -4.674459684    15.051622950    -1.741775737
 H       -3.032228399    15.623913109    -2.001475727
 H       -2.481130134    -1.749129914    -0.707792124
 H       -2.380773778    -1.782774882    -2.460943923
 H       -2.703811708    -0.258947485    -1.648289302
 H        0.886639000    -0.073348917    -2.955312026
 H       -0.677785258     0.760283229    -2.973455920
 H       -0.505922218    -0.822470981    -3.721213509
 H       -0.496978498    -2.967640197     0.773415650
 H       -0.677421839    -2.840830015     2.516789596
 H        0.874365593    -2.468011439     1.780686170
 H       -0.644593638     0.876457030     2.874387704
 H        0.778856768    -0.164384144     3.054286494
 H       -0.775918962    -0.667746324     3.704625798

