187   

Si        0.000000000     0.000000000     0.000000000
 C        1.863881551     0.000000000     0.000000000
 C       -0.648637117     1.721190307     0.000000000
 C        0.121310895     2.754720507     0.545876482
 C       -0.355352941     4.064214635     0.553797416
 C       -1.612970872     4.370811531     0.025929846
 C       -2.384729378     3.334137642    -0.514175570
 C       -1.910224863     2.024357248    -0.525757286
 C       -2.146087479     5.729609576     0.016350466
 C       -1.494977354     6.799220100     0.503749572
 C       -2.005667190     8.165164700     0.505782180
 C       -3.256362950     8.509756858    -0.012263057
 C       -3.698878348     9.832999858     0.013838775
 C       -2.901443840    10.836300218     0.570135709
 C       -1.645855237    10.492790354     1.092218872
 C       -1.203606613     9.174617977     1.055859536
Si       -3.423543182    12.599953858     0.636982553
 C       -2.873297435    13.338880057     2.219238280
 C       -2.745901701    12.621434996     3.343830322
 C       -2.310795569    13.163420489     4.631112136
 C       -2.223118162    12.291172360     5.728081997
 C       -1.817705204    12.746412460     6.969978577
 C       -1.429152959    14.092972476     7.140484712
 C       -1.513310205    14.966434029     6.044264490
 C       -1.972736058    14.504715648     4.814875086
 N       -1.023521210    14.509119879     8.427121642
 C        0.004161016    13.664879175     9.081029448
 C       -0.795355840    15.951173191     8.613928608
 C        1.048550702    13.022263864     8.152309238
 C        1.857381977    14.052798606     7.343771388
 N        2.488920910    13.484733577     6.141307094
 C        3.492051359    12.519224994     6.309846435
 C        4.208424816    12.418602770     7.521794732
 C        5.197375674    11.459652688     7.674810608
 C        5.553908570    10.606370061     6.621639222
 C        4.866270485    10.729117706     5.410366821
 C        3.857137724    11.667169348     5.246442486
 C        1.542982751    13.271363068     5.032059760
 C        6.605537606     9.612389290     6.840572975
 C        7.030298039     8.745146350     5.911938191
Si        8.338997797     7.492154403     6.149381069
 C        7.773549571     5.832800854     5.590721407
 C        6.422937666     5.571872456     5.340179476
 C        6.012938309     4.307182989     4.917095545
 C        6.940229863     3.276530854     4.743866493
 C        8.292946081     3.539733511     4.999909398
 C        8.706130610     4.801140368     5.418206506
 C        6.563825612     1.937500808     4.303759942
 C        5.310986551     1.541861164     4.022365742
 C        4.947862997     0.198357560     3.582716326
 C        5.890291316    -0.820230740     3.410840237
 C        5.499782515    -2.090029503     2.989038176
 C        4.152932788    -2.373111124     2.729899279
 C        3.209619918    -1.354392746     2.902155651
 C        3.601864967    -0.085398402     3.322532256
Si        3.674259113    -4.063222430     2.173863666
 C        4.367652911    -5.347708816     3.332844357
 C        1.776433511    -4.205388801     2.082149255
 C        4.344091354    -4.363063879     0.415384762
 C        9.853972094     8.003276475     5.115814979
 C        8.850772168     7.393193042     7.979572644
 C       -2.616406690    13.548075272    -0.799248642
 C       -5.312319101    12.751734093     0.489269449
 C       -0.641452370    -0.946340485    -1.519834072
 C       -0.622538352    -0.886527006     1.567537544
 H        1.113337480     2.577692458     0.973146533
 H        0.265738960     4.851104584     0.978443960
 H       -3.366740811     3.550913850    -0.930143477
 H       -2.556323867     1.256900447    -0.960101208
 H       -3.140535203     5.832433737    -0.425730464
 H       -0.498923997     6.686914978     0.944206843
 H       -3.897517988     7.744011720    -0.444439906
 H       -4.683212372    10.044109532    -0.412044057
 H       -0.978728269    11.238058456     1.539859927
 H       -0.224977696     8.926792836     1.463287129
 H       -2.669931484    14.418222084     2.195174623
 H       -2.956490045    11.541551072     3.384255657
 H       -2.495717392    11.241459523     5.605520945
 H       -1.803489723    12.070193276     7.821703774
 H       -1.227827351    16.009007867     6.140224900
 H       -2.050645374    15.205071511     3.982341278
 H       -0.686338285    16.159727397     9.693063386
 H       -1.686595406    16.510050604     8.275039008
 H        0.090192063    16.343798461     8.090514676
 H        0.703310973    13.987362781     5.088882157
 H        1.110422471    12.256818677     5.016623463
 H        2.062603122    13.457725641     4.074865539
 H        3.986275697    13.083559953     8.350203427
 H        5.717170278    11.382387438     8.630385616
 H        5.124192123    10.078882948     4.572661577
 H        3.352143227    11.733230794     4.287756551
 H        7.018079834     9.641940620     7.858003243
 H        6.603096346     8.746672265     4.895753410
 H        5.652068464     6.338961087     5.465450305
 H        4.956751729     4.128693193     4.724465172
 H        9.030946106     2.750448527     4.870789726
 H        9.774820896     4.947786373     5.599133035
 H        7.399982456     1.237320721     4.211032828
 H        4.472115969     2.237700581     4.114599812
 H        6.943325811    -0.627899232     3.607530845
 H        6.283287615    -2.845491376     2.878539237
 H        2.142435236    -1.516721229     2.719044923
 H        2.851069108     0.692473834     3.453824163
 H        0.517711876    14.257418996     9.869049551
 H       -0.550802040    12.855569399     9.616189185
 H        1.732733408    12.391138767     8.752568989
 H        0.555045630    12.314712735     7.454950244
 H        1.202001006    14.891452327     7.012387921
 H        2.645093086    14.520736619     7.975324794
 H        2.265873162    -1.027524850    -0.072824195
 H        2.284547496     0.449106406     0.918245447
 H        2.258085546     0.571114931    -0.860395163
 H        4.071279492    -6.366447552     3.026970489
 H        3.999151685    -5.188472749     4.363053175
 H        5.470624204    -5.315144457     3.367595092
 H        1.438142345    -3.333524720     1.447844067
 C        1.284704422    -5.493648992     1.397106986
 C        1.094261143    -4.091505694     3.457353936
 H        4.013939244    -5.407381400     0.143067326
 C        3.766227764    -3.390376441    -0.628369025
 C        5.880083369    -4.317284438     0.330245867
 H       10.645798350     7.225817575     5.319273838
 C        9.563089589     7.999393711     3.604491885
 C       10.419541330     9.377075200     5.515822657
 H        9.084543231     8.452557094     8.290905815
 C        7.714120152     6.867823509     8.875698745
 C       10.107194478     6.539595287     8.227096407
 H       -2.973100150    14.614667343    -0.708311861
 C       -1.079530286    13.549640028    -0.710275638
 C       -3.036583124    13.018901182    -2.181426869
 H       -5.586394246    12.274545448    -0.495995550
 C       -6.050048340    11.996926606     1.609799688
 C       -5.805029667    14.209672113     0.463477315
 H       -1.766797964    -0.944830590    -1.435450901
 C       -0.267701664    -0.259906561    -2.845989588
 C       -0.174400326    -2.413018366    -1.567507567
 H       -0.031400066    -1.846246790     1.637145796
 C       -0.368588407    -0.071527607     2.848716230
 C       -2.115659791    -1.255916418     1.511500427
 H        1.644427954    -5.602822690     0.365807069
 H        0.186341498    -5.492028007     1.339815206
 H        1.561200437    -6.404014330     1.944660079
 H        1.376232500    -3.190428509     4.019033016
 H        1.297339995    -4.955540603     4.104340782
 H        0.002496460    -4.047584500     3.334054937
 H        2.669840622    -3.413622718    -0.686488504
 H        4.132167017    -3.653473126    -1.631280140
 H        4.074023652    -2.348984629    -0.453935798
 H        6.377343310    -5.021458930     1.009128524
 H        6.288021639    -3.315317685     0.525142925
 H        6.207766160    -4.588038322    -0.684051073
 H        9.196436937     7.031600510     3.234384830
 H       10.483845026     8.212786633     3.043142196
 H        8.835703892     8.766885814     3.306280155
 H       10.733413793     9.429684003     6.566216488
 H        9.710814987    10.199128715     5.339151775
 H       11.311755054     9.606397341     4.915992808
 H        6.784367903     7.447348662     8.792963459
 H        8.014016429     6.913049569     9.931931037
 H        7.462876847     5.816888092     8.671590090
 H       10.990318437     6.893409770     7.680296117
 H        9.958944099     5.479138088     7.979948799
 H       10.375828303     6.568651776     9.293198982
 H       -0.696669345    13.966285023     0.231168451
 H       -0.656539998    14.166968606    -1.515634157
 H       -0.644295017    12.547234225    -0.832742983
 H       -4.118632025    13.070652427    -2.357835905
 H       -2.718620630    11.981114112    -2.357544500
 H       -2.567586178    13.620487318    -2.973623637
 H       -5.792966140    10.929987165     1.663070526
 H       -7.135801613    12.044097871     1.445697662
 H       -5.869663956    12.428563218     2.605240121
 H       -5.387500631    14.796698174    -0.364428489
 H       -5.594656121    14.748921324     1.397608579
 H       -6.897030876    14.234435973     0.335325294
 H       -0.615720446     0.780699739    -2.910484106
 H       -0.730347242    -0.790490247    -3.690011677
 H        0.813868172    -0.257825094    -3.037845194
 H       -0.440207641    -2.985745324    -0.669402128
 H        0.909548916    -2.509275565    -1.718891856
 H       -0.649078288    -2.930385108    -2.413372452
 H        0.681135939     0.218055159     2.987728717
 H       -0.647080779    -0.662270415     3.733020933
 H       -0.970400926     0.847761417     2.891852981
 H       -2.366337846    -1.932521979     0.684896010
 H       -2.772172741    -0.378079845     1.436608744
 H       -2.408757385    -1.777833538     2.433952587

