187   

Si        0.000000000     0.000000000     0.000000000
 C        1.865249115     0.000000000     0.000000000
 C       -0.672378069     1.713862326     0.000000000
 C        0.135765768     2.803517385     0.339926775
 C       -0.381929944     4.098281599     0.337248059
 C       -1.718563615     4.332850421     0.003814761
 C       -2.528313857     3.239904507    -0.331626312
 C       -2.013547580     1.946312696    -0.333221308
 C       -2.300151815     5.670906867    -0.011432632
 C       -1.625760821     6.793970539     0.287202941
 C       -2.192411702     8.137373487     0.276518757
 C       -3.525749210     8.392207447    -0.053902785
 C       -4.024110688     9.695367877    -0.050520038
 C       -3.189728937    10.771398250     0.262000663
 C       -1.848786409    10.519749269     0.585360457
 C       -1.358207852     9.218022155     0.594418367
Si       -3.785533592    12.512981478     0.283978412
 C       -2.491293090    13.518087695    -0.524767255
 C       -1.948886887    14.640753923    -0.036730780
 C       -0.912146490    15.412695319    -0.723700452
 C       -0.419803072    16.574655621    -0.112216678
 C        0.561048668    17.340805540    -0.719919336
 C        1.141447002    16.919533815    -1.934393062
 C        0.658198766    15.749189096    -2.542839612
 C       -0.371893024    15.026395625    -1.953110590
 N        2.139752334    17.729550018    -2.523358781
 C        3.222874999    18.180599828    -1.625370493
 C        2.645231079    17.288511440    -3.835166580
 C        4.125223463    17.053498669    -1.088239330
 C        3.741037684    16.636195625     0.346064223
 N        4.154710259    15.266617397     0.721658960
 C        3.402454820    14.272739750     0.012643881
 C        2.119377208    13.989234122     0.508586768
 C        1.329291088    13.040143076    -0.121608055
 C        1.799638817    12.342970042    -1.244619645
 C        3.082250777    12.623620259    -1.721414101
 C        3.884648888    13.575385237    -1.099851966
 C        5.615510358    15.075560858     0.675427886
 C        0.928035596    11.348374323    -1.877616225
 C        1.283495814    10.631940619    -2.951314444
Si        0.267816942     9.375502508    -3.804599350
 C        0.266740728     9.736406217    -5.609217304
 C        0.543510795    11.029778689    -6.065924312
 C        0.544863630    11.312207581    -7.431132923
 C        0.257551452    10.314674819    -8.366868444
 C       -0.027342615     9.022409837    -7.905889414
 C       -0.024883590     8.735299809    -6.543313303
 C        0.247301040    10.563854442    -9.804567646
 C        0.502089191    11.752296108   -10.377843998
 C        0.491461941    11.999940873   -11.815791527
 C        0.208796728    11.000851303   -12.750683749
 C        0.209440170    11.281352230   -14.117020761
 C        0.487907898    12.571706661   -14.578214940
 C        0.771459636    13.575991816   -13.642503798
 C        0.775168076    13.291594385   -12.279838775
Si        0.492640166    12.957878701   -16.377969339
 C       -0.281022106    11.585277438   -17.376588661
 C       -0.463770417    14.582264882   -16.643134162
 C        2.285154132    13.207507868   -16.968045961
 C        1.014867503     7.655724364    -3.494598107
 C       -1.521108649     9.405562563    -3.170627596
 C       -5.427314516    12.715710578    -0.650136718
 C       -4.052967372    13.044884610     2.090129156
 C       -0.653771095    -0.901750105    -1.543860566
 C       -0.621327854    -0.920664573     1.545111682
 H        1.188446424     2.682534255     0.610633310
 H        0.270093209     4.929316603     0.601258787
 H       -3.572230286     3.400226490    -0.594229077
 H       -2.692500238     1.133050276    -0.604400143
 H       -3.355321142     5.710803214    -0.294967323
 H       -0.571810863     6.746148915     0.581526878
 H       -4.191326993     7.570727635    -0.310629570
 H       -5.078375651     9.832447716    -0.303379663
 H       -1.151836450    11.325944125     0.840882950
 H       -0.313527219     9.040459433     0.846843897
 H       -2.179632631    13.115030764    -1.504177606
 H       -2.243647179    15.074675812     0.927339373
 H       -0.828614313    16.896110586     0.845819516
 H        0.883138194    18.270354794    -0.258185601
 H        1.085508665    15.385295475    -3.472524211
 H       -0.736290573    14.126115720    -2.453183358
 H        3.336504187    18.049739927    -4.234730299
 H        1.799656370    17.219618539    -4.543546619
 H        3.170268394    16.319952564    -3.812550138
 H        6.076659162    15.751357299     1.416448588
 H        6.077376920    15.266500029    -0.304082218
 H        5.853662941    14.041430068     0.980345352
 H        1.753638959    14.525068289     1.383162823
 H        0.325019612    12.844944871     0.259365809
 H        3.470241371    12.095030835    -2.592636602
 H        4.878401977    13.775731039    -1.488290963
 H       -0.050890451    11.248701540    -1.388489237
 H        2.280182515    10.755090742    -3.409151100
 H        0.768722017    11.852414632    -5.378577346
 H        0.769070864    12.323860282    -7.763624844
 H       -0.254261826     8.232138756    -8.618699094
 H       -0.254779260     7.709668032    -6.241373151
 H        0.009814198     9.689790004   -10.418195821
 H        0.739043674    12.626493278    -9.764655205
 H       -0.015018146     9.988966135   -12.417833673
 H       -0.018740074    10.458282283   -14.799758206
 H        0.995642558    14.602917314   -13.944504438
 H        0.998832002    14.084316242   -11.568522086
 H        3.835807324    18.920101912    -2.190456858
 H        2.769039324    18.755392845    -0.787614782
 H        4.062818987    16.172781537    -1.758295662
 H        5.182013528    17.371351118    -1.115730068
 H        4.188002969    17.336020197     1.085012543
 H        2.635204658    16.695932645     0.481282134
 H        2.263300476    -1.029253954    -0.051767348
 H        2.275905013     0.469318319     0.911086748
 H        2.260353262     0.552686583    -0.871841004
 H       -0.309168216    11.841793251   -18.450681745
 H       -1.321096134    11.398090431   -17.053036810
 H        0.279104322    10.639251699   -17.275382215
 H        0.088799712    15.367056993   -16.048803083
 C       -0.498899738    15.041428484   -18.111669267
 C       -1.904283390    14.512098000   -16.104756366
 H        2.217938572    13.382157837   -18.080751418
 C        2.979375331    14.427158035   -16.335790094
 C        3.162018543    11.964046953   -16.731894553
 H        0.332712512     6.924393552    -4.018636430
 C        2.424722745     7.502576946    -4.092549653
 C        1.056500403     7.278993254    -2.004324790
 H       -1.456975659     9.387159998    -2.040661609
 C       -2.254253793    10.693021006    -3.587604947
 C       -2.355129700     8.190589861    -3.610965125
 H       -6.166715773    12.042680831    -0.126420379
 C       -5.970675143    14.155099880    -0.589359885
 C       -5.348463752    12.279862730    -2.123723069
 H       -4.312260788    14.142609660     2.054554985
 C       -5.217824170    12.302619144     2.768902518
 C       -2.790913641    12.879596176     2.956655634
 H       -1.778407376    -0.907434450    -1.446376319
 C       -0.298216218    -0.167451335    -2.849408829
 C       -0.183160702    -2.363440204    -1.646434496
 H       -0.137188690    -1.939287260     1.509561618
 C       -0.192232773    -0.233548067     2.854497434
 C       -2.147562753    -1.118713745     1.569079680
 H        0.498656256    15.184287823   -18.546739168
 H       -1.009523862    16.012410870   -18.188910771
 H       -1.052232432    14.351890432   -18.762833703
 H       -1.956728332    14.242686543   -15.040039411
 H       -2.534909784    13.802584169   -16.656566174
 H       -2.389791897    15.494061277   -16.196990988
 H        2.457796204    15.373464557   -16.526828686
 H        3.988932646    14.543757943   -16.756204130
 H        3.110926653    14.326897987   -15.249154799
 H        2.778724267    11.059945121   -17.222088796
 H        3.296238710    11.732648542   -15.665331250
 H        4.169431299    12.130532747   -17.139537744
 H        2.465831979     7.709288843    -5.170912546
 H        2.776424910     6.468781340    -3.964979570
 H        3.169723358     8.144039361    -3.602895204
 H        0.066101264     7.309567352    -1.527749274
 H        1.731019504     7.918707651    -1.419109006
 H        1.421696776     6.248793830    -1.886249114
 H       -1.755785553    11.609735081    -3.244037200
 H       -3.262548582    10.704877195    -3.148540164
 H       -2.391546298    10.775826942    -4.674737357
 H       -1.941942250     7.232776130    -3.267322305
 H       -2.489361635     8.131010045    -4.698870281
 H       -3.364130678     8.256055816    -3.177256284
 H       -6.145454721    14.514081192     0.432907470
 H       -6.941091426    14.213349188    -1.103046105
 H       -5.314566349    14.881450580    -1.090561058
 H       -5.044678960    11.231746595    -2.252515698
 H       -4.666235548    12.903903999    -2.718598228
 H       -6.336705551    12.371011355    -2.597110995
 H       -6.183014080    12.453729390     2.268770725
 H       -5.347296986    12.666718698     3.798587437
 H       -5.048238390    11.219425213     2.848036323
 H       -1.913584826    13.411173682     2.563220754
 H       -2.506705920    11.826447907     3.096071324
 H       -2.970259773    13.283133480     3.963113977
 H       -0.652410827     0.873079066    -2.872557922
 H       -0.769044265    -0.671048853    -3.705678042
 H        0.780553444    -0.153806844    -3.054159777
 H       -0.465580284    -2.973211922    -0.778511670
 H        0.902743880    -2.455535677    -1.781016638
 H       -0.642498309    -2.844728365    -2.522163280
 H        0.895472543    -0.126791920     2.955490292
 H       -0.523600258    -0.828314914     3.717878894
 H       -0.637909130     0.763813855     2.979421222
 H       -2.527842400    -1.681582112     0.707296792
 H       -2.700327494    -0.170171779     1.623459316
 H       -2.437532646    -1.692774414     2.461303001

