187   

Si        0.000000000     0.000000000     0.000000000
 C        1.865295121     0.000000000     0.000000000
 C       -0.676424375     1.712229300     0.000000000
 C        0.133026938     2.807857207    -0.316445802
 C       -0.390168096     4.100819461    -0.313286115
 C       -1.733104387     4.327392517    -0.001069574
 C       -2.543978743     3.228085176     0.311716930
 C       -2.024180496     1.936716308     0.311876574
 C       -2.323770268     5.661561540     0.014843250
 C       -1.659224249     6.796280563    -0.262277490
 C       -2.251014863     8.130010809    -0.246041365
 C       -1.440526228     9.230409673    -0.556138296
 C       -1.960917863    10.521921163    -0.553534204
 C       -3.310519286    10.741050478    -0.251243036
 C       -4.122693601     9.644728513     0.057731629
 C       -3.595228891     8.354011156     0.064255114
Si       -4.010973098    12.441177988    -0.244125387
 C       -5.824428578    12.353177221    -0.459075770
 C       -6.736192156    12.968036186     0.304724509
 C       -8.182421509    12.868316166     0.094226479
 C       -9.039109991    13.561061086     0.964048211
 C      -10.413704808    13.499830762     0.808357495
 C      -10.975697403    12.709637211    -0.214926327
 C      -10.123836207    12.020053699    -1.089580949
 C       -8.744060811    12.119838414    -0.942478158
 N      -12.390327525    12.693566983    -0.316277114
 C      -13.092906182    12.139360045     0.858963530
 C      -12.939416172    12.241270096    -1.603200654
 C      -13.322265969    10.617890327     0.867818151
 C      -12.037307080     9.773208839     0.954664440
 N      -11.401029932     9.711755657     2.279997183
 C      -12.199554036     9.370906684     3.378379280
 C      -13.248015711     8.437307545     3.216733955
 C      -14.047619972     8.088567026     4.292084183
 C      -13.810838240     8.609467402     5.572759501
 C      -12.754119740     9.509192817     5.736864293
 C      -11.952896629     9.884783603     4.666860608
 C      -10.330565913    10.693827023     2.492649597
 C      -14.687385762     8.206585585     6.672773883
 C      -14.558793055     8.637530047     7.935179775
Si      -15.652313073     8.135903935     9.311239214
 C      -16.324623835     6.439164637     9.079814235
 C      -15.567430707     5.474461272     8.405208907
 C      -16.063581577     4.184764185     8.222213161
 C      -17.319648176     3.825624118     8.719346599
 C      -18.072111418     4.790023863     9.402345206
 C      -17.580818339     6.080631913     9.583478058
 C      -17.879304069     2.488574653     8.551836239
 C      -17.264189883     1.474862083     7.919409121
 C      -17.824512649     0.138016028     7.752289915
 C      -19.081744203    -0.219516091     8.246059838
 C      -19.579259314    -1.509708098     8.063740870
 C      -18.831178128    -2.470098419     7.375679057
 C      -17.570244072    -2.113656678     6.878293718
 C      -17.073881409    -0.826832410     7.066975152
Si      -19.473791384    -4.176900459     7.126807630
 C      -21.291281354    -4.292092490     7.530952409
 C      -19.171538356    -4.670210966     5.313197796
 C      -18.520764085    -5.384044055     8.248452262
 C      -14.641191912     8.174418383    10.922439288
 C      -17.076103880     9.390220099     9.453322936
 C       -3.548691723    13.296636559     1.389683554
 C       -3.280001728    13.440884550    -1.688206566
 C       -0.616353865    -0.920266089    -1.547881187
 C       -0.656144849    -0.905270487     1.540681452
 H        1.190750373     2.693357254    -0.569062802
 H        0.262027995     4.936771955    -0.559326661
 H       -3.592856622     3.382658452     0.558343485
 H       -2.704580111     1.118794740     0.565290885
 H       -3.385658985     5.688366951     0.277322855
 H       -0.597588639     6.769843904    -0.524443901
 H       -0.391189441     9.077011130    -0.800424679
 H       -1.280801455    11.342083347    -0.798939691
 H       -5.183613896     9.758459363     0.304294017
 H       -4.245473860     7.516885813     0.312275139
 H       -6.128742346    11.730591229    -1.317698683
 H       -6.466686187    13.600386034     1.160616576
 H       -8.618148058    14.168272544     1.766109870
 H      -11.067755146    14.072332353     1.463531375
 H      -10.529485422    11.411148501    -1.892050713
 H       -8.098404203    11.587705922    -1.642973043
 H      -14.026476021    12.435083483    -1.613872168
 H      -12.772860335    11.175394252    -1.823265617
 H      -12.494045088    12.842921590    -2.416040476
 H       -9.746992893    10.828465140     1.562652078
 H       -9.628562033    10.307928661     3.254692839
 H      -10.695509660    11.684835799     2.808432412
 H      -13.430072918     7.986213338     2.246099318
 H      -14.865388029     7.382468830     4.140802375
 H      -12.547854287     9.928822031     6.722625697
 H      -11.146408041    10.590060089     4.837596515
 H      -15.471264156     7.500154406     6.364012976
 H      -13.770489174     9.352015089     8.216267349
 H      -14.574464516     5.696373724     7.998742081
 H      -15.458538789     3.454474130     7.687893559
 H      -19.052073704     4.530820914     9.797987768
 H      -18.212733468     6.789594633    10.125064188
 H      -18.872385399     2.350384519     8.989374117
 H      -16.270907331     1.612671771     7.482066557
 H      -19.685933717     0.510426839     8.781720017
 H      -20.568825017    -1.729988573     8.473603488
 H      -16.941354065    -2.822220021     6.331888728
 H      -16.091887541    -0.569371967     6.674487245
 H      -12.550219803    12.437687323     1.783743532
 H      -14.082832233    12.655317997     0.902517434
 H      -13.986771874    10.373019967     1.723963071
 H      -13.889981656    10.315655446    -0.032009511
 H      -12.267018375     8.722793894     0.651287568
 H      -11.289344289    10.140036914     0.215089183
 H        2.263275945    -1.029452189     0.047306998
 H        2.261075501     0.549036062     0.873815567
 H        2.275192846     0.473102032    -0.909433990
 H      -21.677322070    -5.309695854     7.342087380
 H      -21.880359538    -3.593458218     6.909463011
 H      -21.491168450    -4.052146626     8.589963679
 H      -18.053767191    -4.622891211     5.162208041
 C      -19.631479323    -6.100856379     4.981139636
 C      -19.822338673    -3.690700097     4.319809109
 H      -19.002470693    -6.391918326     8.089073217
 C      -17.028085778    -5.508807098     7.894442834
 C      -18.645204126    -5.026022501     9.740799598
 H      -14.260375365     9.231076553    11.027102490
 C      -15.477815785     7.841522606    12.170020243
 C      -13.426018764     7.231056308    10.868583293
 H      -17.678588859     9.080411400    10.355331872
 C      -16.591470594    10.833510887     9.680018451
 C      -18.003070103     9.362223961     8.224845625
 H       -4.084095856    14.289968330     1.383097291
 C       -4.022881204    12.502975380     2.621048457
 C       -2.040474849    13.569570859     1.528874485
 H       -2.168449238    13.491469598    -1.499990493
 C       -3.500510720    12.757405060    -3.049353259
 C       -3.817549295    14.881007426    -1.755710276
 H       -0.128707217    -1.937177083    -1.512870813
 C       -2.141759083    -1.124027902    -1.575478105
 C       -0.187308837    -0.229857700    -2.855560160
 H       -1.780827722    -0.907171878     1.443085550
 C       -0.190009870    -2.368816211     1.637719661
 C       -0.298674452    -0.176913613     2.848990420
 H      -19.152356229    -6.867350230     5.603898603
 H      -19.373677040    -6.345635027     3.940402072
 H      -20.718354630    -6.231933339     5.066328959
 H      -19.497012025    -2.649931653     4.460833243
 H      -20.919514629    -3.702615276     4.361460880
 H      -19.548857889    -3.960691316     3.289860846
 H      -16.850610849    -5.843692241     6.864690212
 H      -16.549260226    -6.254735289     8.545613447
 H      -16.474057798    -4.571553597     8.045588952
 H      -19.682759160    -4.994816845    10.097379109
 H      -18.179082530    -4.061390660     9.988592665
 H      -18.132644090    -5.781609735    10.353361573
 H      -16.314939527     8.532560194    12.330852222
 H      -14.850695938     7.904420316    13.071157949
 H      -15.885102547     6.820398313    12.152177621
 H      -12.747422860     7.440857154    10.030318918
 H      -13.711086682     6.170838618    10.806792230
 H      -12.826810431     7.334812814    11.784163872
 H      -15.982165459    10.951870993    10.585011966
 H      -17.454130033    11.504331310     9.801461994
 H      -16.013683271    11.227554117     8.832136438
 H      -18.438996283     8.372658370     8.029205707
 H      -17.499630754     9.688312554     7.303085274
 H      -18.848995264    10.047675376     8.373701717
 H       -5.102247261    12.299318562     2.625347533
 H       -3.810978112    13.068888649     3.539154314
 H       -3.506899178    11.537688002     2.729459479
 H       -1.639723791    14.217224455     0.738725959
 H       -1.438855099    12.649721552     1.548288819
 H       -1.838353171    14.085668000     2.478907909
 H       -3.105769395    11.732354550    -3.091641286
 H       -2.982309498    13.317889875    -3.840607135
 H       -4.558471996    12.718324118    -3.342710394
 H       -3.616392635    15.464028374    -0.847701265
 H       -4.899192715    14.926290494    -1.947402293
 H       -3.336640498    15.423871633    -2.582153995
 H       -2.521000980    -1.693325822    -0.717443115
 H       -2.427996044    -1.694021722    -2.471440402
 H       -2.698182398    -0.177400400    -1.625539504
 H        0.900089015    -0.117865660    -2.953760682
 H       -0.637263451     0.765632595    -2.980165721
 H       -0.513778234    -0.825016867    -3.720425411
 H       -0.471258185    -2.973666915     0.766040686
 H       -0.653645181    -2.852995592     2.509605057
 H        0.895185639    -2.464480429     1.775340418
 H       -0.650407179     0.864449040     2.875944826
 H        0.780017189    -0.166832215     3.054032854
 H       -0.771189042    -0.682522259     3.703200776

