187   

Si        0.000000000     0.000000000     0.000000000
 C        1.859844767     0.000000000     0.000000000
 C       -0.638954862     1.725698374     0.000000000
 C       -0.039888782     2.678931315    -0.833226880
 C       -0.502819917     3.993276945    -0.853984529
 C       -1.565962202     4.385748517    -0.036089597
 C       -2.165925326     3.430386425     0.794053501
 C       -1.714259227     2.113148206     0.806907710
 C       -2.088738162     5.746435339    -0.018800300
 C       -1.626406669     6.763020314    -0.765820330
 C       -2.170380405     8.116213160    -0.727173680
 C       -3.236437483     8.469647014     0.106185790
 C       -3.732175859     9.771944700     0.118630590
 C       -3.181091287    10.748948655    -0.717495219
 C       -2.122666901    10.394806316    -1.564080831
 C       -1.628170353     9.092147011    -1.572502063
Si       -3.841789048    12.466525893    -0.694782452
 C       -3.463733752    13.342603602    -2.251766149
 C       -3.342208052    12.719321414    -3.430975837
 C       -3.040415174    13.394484461    -4.692023727
 C       -2.941371477    12.616097972    -5.855903263
 C       -2.658026557    13.199772950    -7.077531071
 C       -2.421017331    14.587942745    -7.158932965
 C       -2.517465272    15.368986648    -5.998170545
 C       -2.843822043    14.772657452    -4.784241342
 N       -2.135900402    15.128730844    -8.436832541
 C       -1.016784763    14.459586609    -9.140718947
 C       -2.083784308    16.597091384    -8.529901186
 C        0.149680387    13.985694055    -8.253966979
 C        0.780925971    15.140166438    -7.455070792
 N        1.988299546    14.750360875    -6.719903748
 C        1.889659236    14.142493683    -5.461321088
 C        0.809811790    14.422081767    -4.596444956
 C        0.722681260    13.813915271    -3.352073049
 C        1.707688968    12.921773168    -2.905714093
 C        2.786342943    12.663200326    -3.757751452
 C        2.891388286    13.261653634    -5.004710030
 C        3.095017378    14.338116757    -7.595744700
 C        1.595989220    12.289461703    -1.585778639
 C        2.513790810    11.432095058    -1.121115103
Si        2.639556119    10.508172692     0.449436409
 C        2.969619548     8.753261481    -0.006868132
 C        2.312246498     8.197148749    -1.111452411
 C        2.541046837     6.872413381    -1.481550171
 C        3.423582709     6.071984624    -0.751054072
 C        4.072915583     6.628071387     0.359362572
 C        3.846524496     7.951027410     0.731220215
 C        3.701448122     4.681107751    -1.091376967
 C        3.161621463     4.006473415    -2.120832921
 C        3.464047296     2.612193564    -2.431389712
 C        4.356902555     1.854069223    -1.666916900
 C        4.624316415     0.525174601    -1.989599494
 C        3.999270004    -0.083009627    -3.085857703
 C        3.104450361     0.672823439    -3.851307371
 C        2.841709131     2.003367461    -3.528092864
Si        4.391332643    -1.842903447    -3.465072373
 C        4.378801115    -2.853396706    -1.896684268
 C        3.138373405    -2.564436176    -4.702790211
 C        6.115935352    -1.919552620    -4.267483264
 C        4.167299373    11.219849874     1.351270083
 C        1.186532693    10.668847943     1.654735945
 C       -5.722160246    12.436998481    -0.422905205
 C       -3.025281309    13.419379384     0.736414960
 C       -0.633018307    -0.849891143    -1.584174778
 C       -0.639545540    -0.963008513     1.510829135
 H        0.811730066     2.435016754    -1.479223501
 H       -0.017507268     4.718238971    -1.504941208
 H       -2.996384494     3.715968379     1.436251770
 H       -2.227397631     1.409882114     1.467590728
 H       -2.923266431     5.901894499     0.672289450
 H       -0.787963211     6.619012805    -1.452545897
 H       -3.685861773     7.727119752     0.762939925
 H       -4.560741847     9.987533385     0.798415714
 H       -1.640293818    11.119765298    -2.230395566
 H       -0.804817708     8.837460130    -2.238253401
 H       -3.352592019    14.432947532    -2.162133205
 H       -3.467843895    11.632303197    -3.547189853
 H       -3.098673718    11.538038992    -5.800475004
 H       -2.622076786    12.593164278    -7.979000517
 H       -2.344737447    16.439890933    -6.029874795
 H       -2.928325391    15.397333027    -3.894203109
 H       -2.046446305    16.885813958    -9.594929240
 H       -1.228910871    17.058254092    -8.012192589
 H       -3.019120277    17.020817237    -8.121190134
 H        3.071780685    14.915422971    -8.534944359
 H        3.074980120    13.264589986    -7.847025211
 H        4.056423109    14.571538908    -7.100794677
 H        0.021630865    15.103544935    -4.907892131
 H       -0.136235569    14.033479385    -2.715040656
 H        3.573689564    11.973512156    -3.445516874
 H        3.748728897    13.023485813    -5.624367587
 H        0.698041890    12.571312629    -1.026315772
 H        3.399069707    11.192555397    -1.745738404
 H        1.608871931     8.778504736    -1.717558881
 H        2.023082830     6.463436658    -2.346385668
 H        4.759786943     6.020007918     0.944585841
 H        4.375761726     8.326652942     1.610747566
 H        4.411191262     4.186415692    -0.419710181
 H        2.450688231     4.488288132    -2.796357848
 H        4.854115346     2.299481272    -0.806753912
 H        5.332326321    -0.013176825    -1.352319959
 H        2.589248039     0.252825622    -4.719323706
 H        2.143967179     2.573087601    -4.139297953
 H       -1.457477776    13.576791138    -9.664407808
 H       -0.635005316    15.129651564    -9.940753367
 H       -0.190103010    13.198743840    -7.549853628
 H        0.909213976    13.496667574    -8.891302050
 H        1.057764508    15.975245571    -8.139940406
 H        0.035961755    15.561273649    -6.740385966
 H        2.267334958    -1.025070365     0.036708322
 H        2.257396108     0.552887359     0.870132210
 H        2.262201275     0.484604019    -0.911106438
 H        4.582268034    -3.918091167    -2.107185610
 H        3.392143611    -2.793421073    -1.399973616
 H        5.137579760    -2.503844194    -1.175546198
 H        3.090765309    -1.832333043    -5.560529834
 C        3.560171912    -3.929677640    -5.277357704
 C        1.725502727    -2.697274573    -4.108245761
 H        6.315087989    -3.013363560    -4.459656535
 C        6.185170391    -1.175453528    -5.613315770
 C        7.233978477    -1.388466129    -3.352232764
 H        4.287615678    10.604709710     2.288529783
 C        5.462389986    11.093391953     0.529623011
 C        3.983134478    12.690694372     1.764634465
 H        1.016051726    11.778093598     1.783925528
 C       -0.108283741    10.044654838     1.123697562
 C        1.481675903    10.068186894     3.042805310
 H       -5.884934232    11.979816880     0.595709680
 C       -6.357457305    13.838741826    -0.420426450
 C       -6.447509001    11.561134172    -1.460075874
 H       -3.517709484    14.433897978     0.752032281
 C       -3.250287417    12.757603702     2.107163873
 C       -1.514302694    13.623484402     0.525504636
 H       -0.029101814    -1.796647383    -1.688051605
 C       -2.122114783    -1.235477356    -1.523444285
 C       -0.403727743     0.010148270    -2.840900845
 H       -1.765528488    -0.906168513     1.465301977
 C       -0.242817126    -2.451611817     1.493842859
 C       -0.185655328    -0.346486031     2.847071389
 H        4.515885664    -3.898380113    -5.816197812
 H        2.811506024    -4.277717638    -6.003934257
 H        3.632843901    -4.714600072    -4.513254733
 H        1.341133909    -1.759417903    -3.681479113
 H        1.662745927    -3.464359437    -3.324646431
 H        1.012654758    -2.995483346    -4.889731182
 H        5.474138264    -1.553758870    -6.358833239
 H        7.184952167    -1.290864210    -6.056394653
 H        6.017876323    -0.093590539    -5.511817360
 H        7.298788289    -1.915317808    -2.391818973
 H        7.138459957    -0.313626349    -3.141966649
 H        8.211154658    -1.518672457    -3.839636936
 H        5.675316190    10.066717424     0.201809109
 H        6.324239879    11.407790463     1.135058414
 H        5.464250198    11.733718946    -0.363274592
 H        3.128786767    12.851150926     2.434780018
 H        3.862608317    13.364139325     0.903790795
 H        4.870705030    13.043093242     2.308765407
 H       -0.432063010    10.479650798     0.167601798
 H       -0.936157783    10.209004931     1.827938082
 H       -0.043047888     8.955197940     0.984256188
 H        2.326847855    10.542814719     3.555785629
 H        1.671278220     8.985894397     3.008016467
 H        0.609940555    10.202463470     3.699958062
 H       -5.941748026    14.505721694     0.345309992
 H       -7.433790679    13.762467091    -0.207918645
 H       -6.272606566    14.347383371    -1.391058258
 H       -6.092887347    10.520860074    -1.476032341
 H       -6.366187833    11.953730687    -2.483896091
 H       -7.521737484    11.516120179    -1.231835044
 H       -4.309137590    12.661297820     2.377840134
 H       -2.786638620    13.364234876     2.898549166
 H       -2.793995822    11.759415302     2.180474946
 H       -1.268448054    14.127241382    -0.419090404
 H       -0.951138726    12.677854042     0.560974898
 H       -1.103113276    14.253553410     1.326786610
 H       -2.360240664    -1.927961804    -0.706465125
 H       -2.417395193    -1.743045594    -2.452775095
 H       -2.784995976    -0.364467717    -1.426173726
 H        0.645726100     0.308363618    -2.981843708
 H       -1.008967368     0.928566742    -2.841764350
 H       -0.695800162    -0.548880026    -3.740584670
 H       -0.587909477    -2.983829711     0.598006632
 H       -0.693763902    -2.969683481     2.352082743
 H        0.841282712    -2.605470966     1.577147644
 H       -0.452230605     0.714246775     2.953708491
 H        0.897904979    -0.429118106     3.007420493
 H       -0.663845354    -0.870584481     3.686217788

