187   

Si        0.000000000     0.000000000     0.000000000
 C        1.865293602     0.000000000     0.000000000
 C       -0.678268142     1.711266718     0.000000000
 C        0.126861221     2.805745186    -0.331270072
 C       -0.396795583     4.098453837    -0.328252377
 C       -1.735994621     4.326197769    -0.001026883
 C       -2.542603140     3.227982153     0.326356496
 C       -2.022458150     1.936722347     0.326118897
 C       -2.326999993     5.660179940     0.015351819
 C       -1.666466178     6.793848629    -0.275375641
 C       -2.258561113     8.127442080    -0.258671131
 C       -1.452097764     9.226477970    -0.584036756
 C       -1.973011155    10.517621965    -0.581575417
 C       -3.318395076    10.738840890    -0.260986424
 C       -4.125678010     9.643830901     0.063882474
 C       -3.598403139     8.352887292     0.068205354
Si       -4.012938911    12.442497846    -0.255903120
 C       -5.836218713    12.365706163    -0.345506257
 C       -6.691924132    13.009559578     0.459057255
 C       -8.148601567    12.917345334     0.349039361
 C       -8.945088169    13.638570018     1.249751544
 C      -10.328008195    13.585019266     1.187634664
 C      -10.969929212    12.755093604     0.243018596
 C      -10.170257534    12.028444229    -0.660366385
 C       -8.786300425    12.132150710    -0.615396810
 N      -12.373749631    12.706687498     0.186735699
 C      -13.106851662    12.900193236     1.450825415
 C      -12.969467037    11.665214856    -0.668167190
 C      -12.789686001    11.825089240     2.505839939
 C      -13.837730819    11.756082830     3.629015396
 N      -15.222283303    11.436092431     3.207193957
 C      -15.323570326    10.548510384     2.109886801
 C      -14.674345777     9.300031525     2.211347382
 C      -14.741007777     8.393578048     1.167126087
 C      -15.473758184     8.682012583     0.005185263
 C      -16.136196026     9.908147120    -0.079375396
 C      -16.077219016    10.830400421     0.960110503
 C      -16.108754568    12.611203519     3.182460291
 C      -15.512191737     7.688775475    -1.070417641
 C      -16.178562867     7.859580306    -2.219170767
Si      -16.267630633     6.664088241    -3.598638266
 C      -15.861630360     7.532768874    -5.168243824
 C      -15.065927327     8.685260633    -5.141594330
 C      -14.752025895     9.351273982    -6.323483129
 C      -15.213312175     8.876855224    -7.558398043
 C      -16.000813067     7.722122501    -7.581014677
 C      -16.321534496     7.054972701    -6.399462879
 C      -14.857599386     9.609750492    -8.769072741
 C      -15.237513481     9.265782712   -10.011306185
 C      -14.881925540     9.998506036   -11.222048741
 C      -14.094909694    11.152803609   -11.201041217
 C      -13.779006972    11.822210682   -12.383313091
 C      -14.250176665    11.354035731   -13.613712141
 C      -15.040746177    10.196932206   -13.637255255
 C      -15.349814924     9.527906622   -12.456359125
Si      -13.843012124    12.225004365   -15.183689487
 C      -13.085390714    13.899323262   -14.863776868
 C      -12.609748969    11.180749376   -16.189651774
 C      -15.446385547    12.409191719   -16.193008869
 C      -15.047940103     5.226824397    -3.352727975
 C      -18.032990981     5.961559057    -3.681825721
 C       -3.437179100    13.348683468     1.313622892
 C       -3.371343834    13.387006697    -1.778489111
 C       -0.616783262    -0.920075002    -1.548006615
 C       -0.654989178    -0.906988513     1.540417712
 H        1.181481688     2.690208950    -0.596032892
 H        0.252105392     4.933465563    -0.586017278
 H       -3.588502037     3.383426199     0.584199425
 H       -2.699731271     1.119880964     0.590736976
 H       -3.385612257     5.687947681     0.290007615
 H       -0.608007080     6.766453228    -0.550277032
 H       -0.406095381     9.071984284    -0.841021682
 H       -1.296638132    11.336454245    -0.841497467
 H       -5.182877869     9.759459393     0.324950932
 H       -4.245338126     7.516959898     0.327639922
 H       -6.202343029    11.724126145    -1.164755495
 H       -6.361292039    13.662880311     1.277117049
 H       -8.471217044    14.265102805     2.006021088
 H      -10.913898270    14.186763095     1.875753596
 H      -10.622450205    11.384812293    -1.408482339
 H       -8.191784825    11.571814593    -1.339158148
 H      -14.071334722    11.691154693    -0.591741362
 H      -12.643603230    10.643542734    -0.411282059
 H      -12.714016048    11.873510961    -1.722819302
 H      -16.082542715    13.097346147     4.173956763
 H      -17.150619212    12.279655696     3.021862396
 H      -15.853589044    13.361979074     2.418851086
 H      -14.126209337     9.052669229     3.117802117
 H      -14.225414603     7.436793727     1.256800801
 H      -16.718029669    10.153685786    -0.969545038
 H      -16.607346222    11.772335929     0.859266558
 H      -14.936656505     6.781947571    -0.844312289
 H      -16.755954816     8.780259101    -2.410233406
 H      -14.673586874     9.098133748    -4.206261016
 H      -14.137934483    10.249217653    -6.284407912
 H      -16.371441053     7.332736996    -8.527368044
 H      -16.941568939     6.157977854    -6.479180383
 H      -14.236230038    10.494599508    -8.602042810
 H      -15.858582311     8.380823439   -10.178366790
 H      -13.718528702    11.540232878   -10.255997994
 H      -13.158406016    12.719151726   -12.303362490
 H      -15.437843437     9.785272156   -14.569447949
 H      -15.963841954     8.630203391   -12.495180346
 H      -12.879070516    13.916074947     1.843505363
 H      -14.195146842    12.906031964     1.212861020
 H      -12.699243814    10.836749270     2.010558814
 H      -11.790673331    12.013334991     2.945869084
 H      -13.540562996    10.959644096     4.354247216
 H      -13.839701304    12.708418714     4.201996423
 H        2.263000960    -1.029028154     0.057105701
 H        2.261023957     0.557329338     0.868556166
 H        2.275424068     0.464480944    -0.913751670
 H      -12.881708593    14.431412377   -15.810227043
 H      -12.130098144    13.818224953   -14.316022522
 H      -13.764461935    14.534366770   -14.266287733
 H      -12.355217543    11.801775702   -17.096787287
 C      -11.305745612    10.904399238   -15.418899449
 C      -13.186680490     9.839970448   -16.677691619
 H      -15.815763921    11.359000368   -16.380148703
 C      -16.544705405    13.163410532   -15.421826180
 C      -15.237789327    13.085793831   -17.559479896
 H      -15.278352842     4.793242760    -2.336649020
 C      -15.211581890     4.107149375    -4.395993897
 C      -13.580908715     5.694290154    -3.355390660
 H      -18.032277417     5.219046784    -4.531682169
 C      -18.445045472     5.217036130    -2.399841763
 C      -19.083897305     7.041365351    -3.995492904
 H       -3.972144428    14.342365742     1.310853312
 C       -3.824949785    12.596924205     2.600239677
 C       -1.923126611    13.624604403     1.341319812
 H       -2.249684950    13.433478382    -1.666142198
 C       -3.686432655    12.660130878    -3.098008579
 C       -3.902662241    14.828765776    -1.859597647
 H       -0.129383419    -1.937060390    -1.513352390
 C       -2.142299255    -1.123391635    -1.574514440
 C       -0.188469776    -0.229496906    -2.855753326
 H       -1.779445209    -0.913475417     1.440926826
 C       -0.183434045    -2.368758909     1.638916911
 C       -0.302214778    -0.176744773     2.848884871
 H      -10.783033116    11.816542196   -15.103320101
 H      -10.600970835    10.351947278   -16.056812657
 H      -11.461608511    10.284150739   -14.524425593
 H      -14.083101655     9.951101155   -17.300632721
 H      -13.430520913     9.155431969   -15.853115871
 H      -12.445259678     9.316877258   -17.299288885
 H      -16.789419595    12.702734192   -14.453995220
 H      -17.477693477    13.169177582   -16.003180981
 H      -16.291833116    14.215142294   -15.232926602
 H      -14.518880546    12.559071271   -18.200249485
 H      -14.908273002    14.129838642   -17.474786658
 H      -16.186223514    13.107742166   -18.115792693
 H      -16.206713798     3.644578100    -4.386641894
 H      -14.496092414     3.296896791    -4.192770012
 H      -15.006467361     4.443859531    -5.422189016
 H      -13.363929312     6.470208078    -2.608725667
 H      -13.259886665     6.081259877    -4.333543803
 H      -12.915616880     4.849853025    -3.126220883
 H      -17.790142669     4.369925355    -2.158315296
 H      -19.455991580     4.800372579    -2.514924788
 H      -18.481771949     5.871533440    -1.517106614
 H      -18.878550699     7.593591589    -4.923421568
 H      -19.194995484     7.778146625    -3.188137276
 H      -20.072165567     6.578051414    -4.127170555
 H       -4.901473420    12.394424905     2.683926703
 H       -3.552658160    13.192714608     3.482601093
 H       -3.302243008    11.635087471     2.704935281
 H       -1.576002196    14.237931823     0.500162437
 H       -1.321188833    12.705163035     1.359464722
 H       -1.659435153    14.179424786     2.253523534
 H       -3.300826670    11.631362396    -3.131536310
 H       -3.219967520    13.189713414    -3.940793769
 H       -4.762193470    12.619004047    -3.317657217
 H       -3.637931614    15.440130296    -0.987378250
 H       -4.994688048    14.876178674    -1.979775211
 H       -3.475018176    15.339108337    -2.734351539
 H       -2.520540465    -1.695445210    -0.717923918
 H       -2.429813137    -1.690275262    -2.472030395
 H       -2.698602440    -0.176447241    -1.620689374
 H        0.898814191    -0.117225985    -2.954593383
 H       -0.638718433     0.765983875    -2.979928843
 H       -0.515337777    -0.824513826    -3.720555772
 H       -0.460959361    -2.974987017     0.766992861
 H       -0.646545409    -2.854374877     2.510215506
 H        0.901901877    -2.460238623     1.778254405
 H       -0.658280266     0.863166768     2.874993520
 H        0.776249802    -0.161888199     3.054979456
 H       -0.773392350    -0.684040354     3.702747298

