187   

Si        0.000000000     0.000000000     0.000000000
 C        1.865615041     0.000000000     0.000000000
 C       -0.686019574     1.708224616     0.000000000
 C        0.143914507     2.832989681     0.022135055
 C       -0.401252828     4.117516865     0.021628951
 C       -1.784844663     4.305756218    -0.027988303
 C       -2.615621438     3.177140640    -0.053441453
 C       -2.074948433     1.895394910    -0.029829708
 C       -2.404356185     5.626132478    -0.030755562
 C       -1.732533675     6.788772916     0.013068420
 C       -2.361095643     8.105239227     0.009895707
 C       -3.745924750     8.278030172    -0.040011638
 C       -4.303994233     9.556021043    -0.041110892
 C       -3.494384969    10.692015481     0.050559367
 C       -2.104990480    10.518289815     0.118487593
 C       -1.548641576     9.242980547     0.094925093
Si       -4.209636644    12.385067800     0.050810743
 C       -3.867917498    13.347939883     1.566543717
 C       -2.800667677    13.256946123     2.369598176
 C       -2.630041101    14.085947662     3.568236702
 C       -1.478527163    13.923687065     4.353391455
 C       -1.280228692    14.687830057     5.493556058
 C       -2.230781067    15.653078632     5.861041198
 C       -3.382995022    15.822767558     5.087189315
 C       -3.579690659    15.033866237     3.958194698
 N       -1.945696111    16.398496127     7.055122184
 C       -1.085376306    17.568105969     6.760700486
 C       -3.138242861    16.743350690     7.849619068
 C       -1.785628341    18.717174543     6.006329878
 C       -0.790442007    19.595302070     5.223123632
 N       -0.646109572    19.255860663     3.790600754
 C       -0.064940716    17.984536339     3.540886930
 C        1.223460352    17.743567747     4.058570981
 C        1.840457954    16.521938816     3.846693609
 C        1.216122791    15.518368821     3.091102930
 C       -0.044571873    15.777254565     2.548734981
 C       -0.674269540    17.000948650     2.748733604
 C       -1.854839246    19.571999820     3.009928342
 C        1.916171382    14.247099704     2.900422529
 C        1.430906309    13.211896135     2.202625775
Si        2.300592667    11.620708595     1.960602414
 C        1.173879724    10.226288346     2.376006251
 C       -0.055436100    10.459499396     3.003471682
 C       -0.903858692     9.400120406     3.315343090
 C       -0.525481611     8.078828522     3.047150122
 C        0.710629226     7.846781948     2.434710811
 C        1.549833629     8.907425170     2.097573671
 C       -1.444772133     6.998984249     3.389967862
 C       -1.200836172     5.698927637     3.156291119
 C       -2.101676482     4.601911654     3.488734571
 C       -3.342858932     4.793293982     4.099943394
 C       -4.165795520     3.705745886     4.395955948
 C       -3.765886785     2.404969771     4.076370382
 C       -2.520728013     2.212045460     3.464319965
 C       -1.697825576     3.296300833     3.180153023
Si       -4.817594943     0.942090166     4.447659681
 C       -6.582239045     1.428770579     4.799892895
 C       -4.729048058    -0.225748326     2.944092827
 C       -4.107245546     0.023912725     5.956068471
 C        2.791881455    11.484075673     0.127627423
 C        3.855722687    11.529305428     3.048106077
 C       -3.502569342    13.353862377    -1.436376407
 C       -6.107834140    12.393539833    -0.133623807
 C       -0.601975832    -0.953021556    -1.532822337
 C       -0.651741196    -0.862741364     1.569905101
 H        1.233277117     2.748182253     0.044073648
 H        0.265144355     4.977422808     0.046383265
 H       -3.696612345     3.303431544    -0.079003493
 H       -2.774010985     1.053208965    -0.031482884
 H       -3.497821830     5.616888108    -0.065202124
 H       -0.639655660     6.803738348     0.060315407
 H       -4.403388360     7.412003238    -0.086030085
 H       -5.394290691     9.621077931    -0.098516314
 H       -1.415386304    11.363910328     0.213692345
 H       -0.466182628     9.127263323     0.164251030
 H       -4.662729491    14.085120677     1.777754390
 H       -1.987301886    12.539113768     2.204078914
 H       -0.721925113    13.188116879     4.071416601
 H       -0.390426814    14.552568068     6.107957121
 H       -4.131219519    16.557993387     5.366677381
 H       -4.489040791    15.171735699     3.373438119
 H       -2.803027677    17.140791380     8.823233415
 H       -3.713473817    15.822126699     8.049134134
 H       -3.810102488    17.479753090     7.386117543
 H       -2.122983194    20.629106155     3.177855323
 H       -2.730023114    18.948772195     3.252065283
 H       -1.628396299    19.462507077     1.933940996
 H        1.732777011    18.522202047     4.621001490
 H        2.830356162    16.345164033     4.267254452
 H       -0.551226224    15.017151444     1.948969919
 H       -1.658644461    17.161512157     2.318820951
 H        2.893165198    14.219810182     3.401585049
 H        0.453333513    13.272328522     1.696624024
 H       -0.392900669    11.468300819     3.262919883
 H       -1.869425330     9.603923320     3.776942401
 H        1.029606500     6.828857865     2.219089102
 H        2.497769369     8.663443129     1.611250219
 H       -2.379154482     7.318595240     3.858704297
 H       -0.267675406     5.386290826     2.675837440
 H       -3.679152530     5.798302345     4.347659284
 H       -5.125359848     3.914830536     4.874813582
 H       -2.158972923     1.217700252     3.184488087
 H       -0.737879383     3.127279265     2.691222821
 H       -0.680358336    17.933020440     7.729421746
 H       -0.212399355    17.199241717     6.171098984
 H       -2.539229241    18.299062416     5.310630349
 H       -2.353380758    19.340264524     6.719455799
 H       -1.105406895    20.662615288     5.277039723
 H        0.217330034    19.556992693     5.693300908
 H        2.263054478    -1.030373401     0.010203413
 H        2.266930869     0.517820466     0.889487518
 H        2.271435841     0.503680059    -0.894961825
 H       -7.214297860     0.541102417     4.978611116
 H       -7.017889615     1.980694973     3.947353980
 H       -6.657202217     2.075306695     5.691820913
 H       -3.640498329    -0.510889952     2.841678628
 C       -5.536790490    -1.523102841     3.120695874
 C       -5.160181205     0.461273255     1.635891636
 H       -4.823904859    -0.821519342     6.165484355
 C       -2.713908447    -0.582500092     5.708489731
 C       -4.040904560     0.915421772     7.209656207
 H        3.284247540    10.475529996     0.013862080
 C        1.578998765    11.530502656    -0.819157687
 C        3.803417990    12.560373771    -0.303518561
 H        4.439265889    12.471395580     2.833499507
 C        3.516339948    11.505817531     4.550138702
 C        4.766712328    10.330615855     2.729515314
 H       -3.751525115    12.730736345    -2.343361998
 C       -4.155546692    14.737802878    -1.610369032
 C       -1.975719919    13.540093158    -1.390110235
 H       -6.392944260    13.487583992    -0.137267051
 C       -6.615837294    11.781885166    -1.450057907
 C       -6.834380428    11.734926768     1.052515509
 H       -0.090756956    -1.957896536    -1.476503814
 C       -2.121184084    -1.198056493    -1.577316303
 C       -0.176719218    -0.276409328    -2.849177925
 H       -1.752755247    -0.613887002     1.618444376
 C       -0.517068828    -2.395499396     1.545060725
 C        0.016803470    -0.332223986     2.851493591
 H       -5.233677767    -2.108049582     3.998528070
 H       -5.391302237    -2.178128675     2.249556656
 H       -6.617962255    -1.348051241     3.195431182
 H       -4.590919673     1.378844109     1.422588186
 H       -6.225668046     0.724977984     1.622023070
 H       -4.997568370    -0.213690913     0.783832606
 H       -2.695339890    -1.306461428     4.884005981
 H       -2.377460760    -1.127008824     6.602533036
 H       -1.948126819     0.181126991     5.508686277
 H       -5.014946525     1.325286216     7.505880380
 H       -3.345467230     1.759911300     7.096074993
 H       -3.679392011     0.332487417     8.068675550
 H        0.836182582    10.746864729    -0.612503741
 H        1.905973345    11.372574512    -1.856850448
 H        1.061644919    12.499914232    -0.804472748
 H        4.737258760    12.538626972     0.272570530
 H        3.396923518    13.579973481    -0.239030491
 H        4.089515768    12.410041642    -1.354304769
 H        2.902287610    12.356596584     4.876987545
 H        4.438605930    11.542291298     5.146480536
 H        2.991148964    10.588095295     4.852858858
 H        5.107668924    10.305140639     1.686848499
 H        4.295459633     9.363830387     2.954853687
 H        5.675634339    10.376210314     3.347417419
 H       -5.244090615    14.697399434    -1.740561828
 H       -3.763381586    15.226393961    -2.514251934
 H       -3.939788347    15.418577957    -0.775008809
 H       -1.425031238    12.591828862    -1.458765337
 H       -1.632633550    14.073756311    -0.492491404
 H       -1.644234596    14.140575020    -2.249609223
 H       -6.221764537    12.287170636    -2.341901146
 H       -7.710604433    11.867958807    -1.507314147
 H       -6.387567156    10.712535680    -1.552648156
 H       -6.560200405    12.167957329     2.024874851
 H       -6.664270977    10.651975007     1.120572596
 H       -7.920596693    11.869094527     0.950543695
 H       -2.520387634    -1.663459300    -0.667389589
 H       -2.365083285    -1.880682914    -2.404200264
 H       -2.691928312    -0.277691920    -1.765007712
 H        0.909970725    -0.157257474    -2.947515332
 H       -0.632635885     0.714643949    -2.987396705
 H       -0.497497476    -0.884828543    -3.706805781
 H       -1.045881019    -2.866160915     0.706489690
 H       -0.949409518    -2.825042106     2.460595105
 H        0.526217438    -2.734697340     1.510265756
 H       -0.019766976     0.762364028     2.948835572
 H        1.069446173    -0.632436089     2.937096169
 H       -0.491971271    -0.739501490     3.737884816

