187   

Si        0.000000000     0.000000000     0.000000000
 C        1.864921315     0.000000000     0.000000000
 C       -0.680047348     1.710872724     0.000000000
 C        0.074716187     2.780853280     0.492271932
 C       -0.444150265     4.075431731     0.490482289
 C       -1.729196855     4.329243449     0.003768794
 C       -2.486564591     3.255381032    -0.482655324
 C       -1.971439781     1.961971133    -0.481936087
 C       -2.314236181     5.665735427    -0.018372258
 C       -1.699796025     6.779152199     0.416051648
 C       -2.288544121     8.114210850     0.392152096
 C       -3.575144463     8.360345042    -0.096454158
 C       -4.100224268     9.651496247    -0.101357436
 C       -3.344473616    10.726826410     0.378585863
 C       -2.056090837    10.484523290     0.870067912
 C       -1.537769205     9.191763904     0.879639451
Si       -4.036728955    12.430301258     0.372322219
 C       -2.686942580    13.649423100     0.561583592
 C       -2.664738798    14.657725145     1.442250695
 C       -1.564192434    15.616517051     1.565292064
 C       -1.661688041    16.631031503     2.530694344
 C       -0.649982148    17.562989927     2.688703642
 C        0.513871804    17.485972865     1.896504605
 C        0.612984035    16.477956835     0.926822251
 C       -0.427485628    15.570365959     0.755353233
 N        1.508394468    18.473546183     2.112383862
 C        2.100042327    18.476403174     3.465940218
 C        2.491618439    18.647103078     1.033052270
 C        3.331876394    17.579475279     3.680145288
 C        3.064478521    16.069891880     3.531702404
 N        2.365955666    15.430952664     4.656869979
 C        2.868817194    15.620387545     5.947813085
 C        4.261108618    15.759552481     6.146978924
 C        4.771275792    15.947645742     7.420819740
 C        3.934373894    15.955005848     8.545877881
 C        2.560559413    15.786653716     8.349532615
 C        2.028157472    15.615954793     7.079283979
 C        0.910952861    15.321147839     4.497469541
 C        4.525267925    16.157939433     9.869433858
 C        3.820870194    16.183005260    11.008393726
Si        4.497947023    16.431425899    12.686675318
 C        3.860815169    15.117825446    13.806310317
 C        3.439921805    13.891190308    13.277627221
 C        2.956295193    12.891203697    14.117348777
 C        2.892383683    13.087149341    15.503147962
 C        3.319938042    14.310255859    16.027844671
 C        3.800483110    15.315597913    15.189763941
 C        2.377757425    12.008569642    16.340370597
 C        2.259006310    12.066307375    17.677726316
 C        1.743973406    10.986096650    18.512704572
 C        1.317162405     9.764360052    17.986096816
 C        0.831395850     8.758231326    18.821017738
 C        0.755156655     8.955945564    20.203198998
 C        1.181468506    10.181095426    20.734006145
 C        1.671346177    11.181066649    19.898593395
Si        0.116454283     7.637969580    21.318277650
 C       -0.728566439     6.278733960    20.360039932
 C        1.560871107     6.884383742    22.302775770
 C       -1.102903415     8.432564950    22.545335923
 C        6.398582388    16.375701402    12.685590830
 C        3.937771196    18.136732801    13.319466383
 C       -4.910426533    12.747721474    -1.287568563
 C       -5.308807159    12.594306214     1.776260939
 C       -0.646361399    -0.921590971    -1.535802344
 C       -0.626951459    -0.909778271     1.549832159
 H        1.086085900     2.644388927     0.885252351
 H        0.165158747     4.891376863     0.875108527
 H       -3.490297872     3.430800818    -0.865080171
 H       -2.610152953     1.164649963    -0.871934807
 H       -3.327950029     5.713487922    -0.427096590
 H       -0.686409712     6.732594797     0.825384444
 H       -4.180048322     7.540283746    -0.478742929
 H       -5.112167460     9.782276476    -0.494627142
 H       -1.423548347    11.287770393     1.261750868
 H       -0.535898025     9.020519289     1.269360275
 H       -1.855777029    13.493608743    -0.146553607
 H       -3.480446650    14.844340826     2.153119457
 H       -2.552029823    16.696701970     3.156948435
 H       -0.752999764    18.368914077     3.413084668
 H        1.493753914    16.401022938     0.296357021
 H       -0.337883750    14.803237743    -0.015377271
 H        3.094410813    19.548265670     1.242958756
 H        1.956198987    18.828465474     0.083601867
 H        3.174543819    17.794757080     0.894034035
 H        0.655456262    15.124051371     3.439493087
 H        0.363373621    16.224260881     4.813773482
 H        0.544483282    14.454539306     5.078359475
 H        4.939495368    15.716946303     5.300674600
 H        5.846723212    16.074824347     7.548746862
 H        1.886215188    15.787567033     9.207923984
 H        0.955346133    15.493798380     6.972478203
 H        5.615085721    16.286117063     9.841340918
 H        2.725114102    16.056823417    10.999993051
 H        3.471565271    13.681376440    12.203086577
 H        2.627693891    11.946095066    13.689082304
 H        3.280646186    14.487541934    17.100792949
 H        4.119609033    16.251218011    15.656756059
 H        2.080455526    11.108404018    15.794081117
 H        2.556229108    12.965666326    18.224772371
 H        1.361942986     9.586637001    16.913100836
 H        0.513933976     7.823559041    18.350580951
 H        1.144156105    10.392554277    21.806365898
 H        1.999167683    12.125147252    20.329561058
 H        2.382159034    19.535904020     3.680315759
 H        1.315797143    18.210341824     4.209675083
 H        4.138051855    17.871123969     2.981210218
 H        3.738105444    17.787214159     4.693242484
 H        2.490068332    15.875424968     2.597076715
 H        4.037421120    15.536053431     3.401472362
 H        2.262533643    -1.029846172    -0.040430429
 H        2.277081419     0.480223488     0.904566074
 H        2.259038617     0.543420953    -0.878225686
 H       -1.141394024     5.510875266    21.038425477
 H       -0.033016042     5.771803621    19.668510126
 H       -1.567625507     6.678438960    19.762009802
 H        1.108761671     6.055106189    22.920113655
 C        2.637832300     6.268104429    21.391151662
 C        2.238119226     7.877861608    23.263827269
 H       -0.509268616     9.205711344    23.114740386
 C       -2.262207998     9.157069782    21.837539567
 C       -1.682264141     7.437372668    23.566387344
 H        6.730830532    17.128896559    11.913819622
 C        7.020580290    16.771922739    14.036668887
 C        6.945088048    14.995618751    12.276177434
 H        4.396721804    18.256007941    14.343223057
 C        4.432724738    19.297024354    12.437996285
 C        2.409179271    18.236732208    13.469317163
 H       -5.746032001    11.991538148    -1.347575072
 C       -5.530893785    14.152377590    -1.382814188
 C       -3.981757875    12.524692157    -2.494382837
 H       -5.618742607    13.679437301     1.788407368
 C       -6.572273235    11.742365967     1.561342150
 C       -4.709699029    12.249740152     3.152306960
 H       -1.771249644    -0.931259230    -1.442086576
 C       -0.288207360    -0.203171509    -2.849362699
 C       -0.170822607    -2.383185443    -1.619003590
 H       -0.156192936    -1.934485141     1.516977959
 C       -0.187583226    -0.224112658     2.856468134
 C       -2.155848356    -1.086573576     1.574307896
 H        2.251301338     5.484649032    20.726763156
 H        3.421357871     5.794879972    22.000230415
 H        3.145226641     7.015453355    20.764114469
 H        1.551591249     8.302012732    24.007353077
 H        2.727193102     8.711570931    22.740463483
 H        3.029504678     7.368667766    23.833117964
 H       -1.924507244     9.925538504    21.127366116
 H       -2.889579032     9.676267437    22.576018218
 H       -2.927204515     8.473574911    21.293264139
 H       -0.913685256     6.930933518    24.164444232
 H       -2.308798768     6.663974766    23.102738482
 H       -2.328230868     7.967236589    24.281600108
 H        6.761741973    17.789982804    14.353958365
 H        8.117738524    16.742468347    13.968023684
 H        6.747790369    16.085764501    14.850972275
 H        6.582373910    14.651562908    11.297874652
 H        6.708048019    14.209871637    13.008118238
 H        8.041203251    15.029339364    12.205205527
 H        5.526146733    19.345603212    12.356239418
 H        4.113117164    20.257872284    12.865800853
 H        4.024163476    19.263509158    11.417817592
 H        1.983088170    17.458900850    14.118650999
 H        1.881388096    18.191186021    12.506821894
 H        2.137253298    19.199404120    13.924870087
 H       -6.274495615    14.354235372    -0.601065681
 H       -6.055166307    14.267918835    -2.342366375
 H       -4.781198739    14.955650749    -1.344303887
 H       -3.532017466    11.521902354    -2.518454051
 H       -3.164784038    13.257080952    -2.548075277
 H       -4.549466311    12.627655059    -3.430259463
 H       -7.114780157    11.990672595     0.640312430
 H       -7.280463447    11.906844738     2.386737537
 H       -6.364241089    10.663091909     1.550086665
 H       -3.821786275    12.843683751     3.408226931
 H       -4.430905049    11.189511963     3.241247725
 H       -5.448225067    12.440224759     3.943726248
 H       -0.642119496     0.837014943    -2.886506589
 H       -0.756254724    -0.717604633    -3.700651523
 H        0.791184677    -0.191677901    -3.051287833
 H       -0.455036055    -2.983419514    -0.745051769
 H        0.915839240    -2.473735077    -1.748115138
 H       -0.625282558    -2.876232553    -2.490684966
 H        0.901529539    -0.131890213     2.956062455
 H       -0.526067380    -0.811652810     3.722041752
 H       -0.620294084     0.779343976     2.978554096
 H       -2.541934951    -1.658254170     0.720940409
 H       -2.696153820    -0.129841851     1.610789563
 H       -2.455525576    -1.641640941     2.475186879

