187   

Si        0.000000000     0.000000000     0.000000000
 C        1.865325793     0.000000000     0.000000000
 C       -0.667892918     1.715661709     0.000000000
 C        0.142147808     2.802079891     0.345835851
 C       -0.371300674     4.098643630     0.343393649
 C       -1.706414530     4.337302937     0.007955777
 C       -2.518497561     3.247570372    -0.333040281
 C       -2.007120813     1.952849430    -0.338022990
 C       -2.285198830     5.675695189    -0.007734501
 C       -1.616916611     6.802685459     0.291101788
 C       -2.204793915     8.137352653     0.272564908
 C       -1.404285735     9.238432126     0.604383087
 C       -1.930781079    10.527358955     0.597615735
 C       -3.274374778    10.744330886     0.263414412
 C       -4.077656500     9.644949997    -0.052169107
 C       -3.549838372     8.355023399    -0.034359759
Si       -3.962118202    12.449556268     0.256796756
 C       -5.496538396    12.607695636    -0.730039850
 C       -5.793776374    11.866035462    -1.805450107
 C       -7.025099000    12.000805833    -2.588345310
 C       -7.212163011    11.158371315    -3.695281090
 C       -8.356469857    11.240790821    -4.471885301
 C       -9.337485884    12.204902506    -4.178949553
 C       -9.156910235    13.051528334    -3.077839783
 C       -8.017395258    12.935010112    -2.286452586
 N      -10.492352122    12.232774282    -5.022068608
 C      -10.169180531    12.698609438    -6.392950101
 C      -11.665088816    12.923593348    -4.456409629
 C       -9.458560998    14.064138070    -6.422649992
 C       -8.919909417    14.471598274    -7.806339248
 N       -8.164336489    13.455881487    -8.568499428
 C       -7.283611179    12.625808807    -7.847769538
 C       -6.517487688    13.172755259    -6.795537773
 C       -5.647332783    12.369945371    -6.077660151
 C       -5.415697522    11.035882566    -6.449104903
 C       -6.139674056    10.510438868    -7.519825192
 C       -7.069053472    11.282569048    -8.206698149
 C       -8.976453587    12.809195412    -9.613863199
 C       -4.485858018    10.234828488    -5.653456902
 C       -4.177302876     8.953500932    -5.899330500
Si       -3.001854247     8.012389213    -4.857600854
 C       -1.745207092     9.149566639    -4.142522003
 C       -1.326725660    10.279894275    -4.857410192
 C       -0.375926608    11.143502137    -4.320429540
 C        0.196173412    10.886820431    -3.067782506
 C       -0.213753611     9.751810728    -2.364792976
 C       -1.171888582     8.889839844    -2.894995475
 C        1.189373771    11.814142589    -2.537030364
 C        1.796359933    11.673956333    -1.346215533
 C        2.790294122    12.593277413    -0.804424665
 C        3.215236346    13.734217670    -1.489476096
 C        4.168954350    14.586223858    -0.932692214
 C        4.720096632    14.313124201     0.323137945
 C        4.292931392    13.170689209     1.013587271
 C        3.337604993    12.324923809     0.457618886
Si        5.979507929    15.428466767     1.070290879
 C        6.705822764    16.588503959    -0.196986712
 C        5.164399396    16.455430944     2.450517192
 C        7.350389938    14.357535111     1.843167385
 C       -3.995976510     7.132192671    -3.489477630
 C       -2.090399175     6.714378052    -5.902818323
 C       -4.323215090    12.996236348     2.039017030
 C       -2.653849716    13.601198911    -0.511155741
 C       -0.655780999    -0.898126003    -1.545175235
 C       -0.623236314    -0.920945525     1.543994158
 H        1.193478737     2.677294649     0.619574859
 H        0.282223599     4.927618981     0.609232909
 H       -3.561134693     3.411818388    -0.598484903
 H       -2.686818483     1.142106024    -0.614737403
 H       -3.341678785     5.712292841    -0.290608612
 H       -0.561213637     6.767775292     0.574009635
 H       -0.361786654     9.086948474     0.877175619
 H       -1.256815359    11.349460999     0.857074681
 H       -5.139785713     9.752245292    -0.297882285
 H       -4.199961902     7.513700113    -0.269396599
 H       -6.183359993    13.389889348    -0.372073738
 H       -5.116583091    11.092919726    -2.198856079
 H       -6.450653086    10.415603514    -3.948387970
 H       -8.496421205    10.568700253    -5.317358316
 H       -9.898559121    13.804737316    -2.832005447
 H       -7.901448865    13.596454541    -1.428398390
 H      -12.539779291    12.704117974    -5.093006631
 H      -11.559642603    14.015439580    -4.373919834
 H      -11.882022616    12.510670527    -3.455535396
 H       -9.543526533    13.575246861   -10.169537953
 H       -9.685916086    12.060514208    -9.227200305
 H       -8.306847543    12.324680868   -10.347921649
 H       -6.619259974    14.222436332    -6.535550432
 H       -5.109417459    12.795259857    -5.227443076
 H       -5.986741167     9.474482131    -7.824061548
 H       -7.627024026    10.825341596    -9.016410985
 H       -4.044304944    10.800912175    -4.817527355
 H       -4.625579806     8.399133908    -6.733829637
 H       -1.731528171    10.523467018    -5.845491598
 H       -0.071044371    12.021859753    -4.885211445
 H        0.216294108     9.527048559    -1.390062122
 H       -1.452766355     8.021405803    -2.288326691
 H        1.422295370    12.661317338    -3.187508980
 H        1.560793682    10.823631150    -0.699117632
 H        2.804422322    13.967330022    -2.470114086
 H        4.463807083    15.462236891    -1.517008856
 H        4.688748309    12.907646117     1.998520544
 H        3.016967243    11.443506617     1.009775461
 H       -9.521810615    11.916194660    -6.854586728
 H      -11.104245924    12.726737909    -6.988794690
 H      -10.144282205    14.852767449    -6.060943013
 H       -8.621762739    14.047536264    -5.691140191
 H       -9.761382405    14.839065033    -8.434844076
 H       -8.232422976    15.344687220    -7.678916634
 H        2.263851403    -1.028955362    -0.053404769
 H        2.275703217     0.468152830     0.911775501
 H        2.259962124     0.554263034    -0.871082371
 H        7.492649633    17.223136375     0.248578339
 H        5.940401838    17.259147527    -0.624976075
 H        7.165369464    16.026010383    -1.030125678
 H        5.967512507    17.151280929     2.829674345
 C        3.994137675    17.312749382     1.934264969
 C        4.668768512    15.608154370     3.636118705
 H        6.844409914    13.731541955     2.634682687
 C        7.993500744    13.398736547     0.824930724
 C        8.457596935    15.177888861     2.528705522
 H       -3.266470820     6.940513726    -2.648632967
 C       -5.136499084     8.011722917    -2.947150177
 C       -4.584871097     5.775579050    -3.915494727
 H       -2.880371028     6.010202913    -6.292127073
 C       -1.366724112     7.334092941    -7.111654877
 C       -1.079176336     5.896917689    -5.078870498
 H       -4.717641807    14.051058364     1.969164168
 C       -5.403670564    12.126026195     2.706416194
 C       -3.071720839    13.014418019     2.934250272
 H       -1.739665792    13.519776415     0.145505240
 C       -2.263214863    13.156091274    -1.930667210
 C       -3.083886321    15.077781126    -0.546846566
 H       -1.780060373    -0.907569124    -1.443620868
 C       -0.307393668    -0.157415347    -2.849106236
 C       -0.181197507    -2.357928260    -1.655131657
 H       -0.144022438    -1.941774920     1.505637241
 C       -0.189561045    -0.238607490     2.854353852
 C       -2.150402118    -1.111966785     1.569688134
 H        4.282056451    18.009022410     1.136110743
 H        3.590974399    17.930253637     2.749707603
 H        3.154218748    16.708734025     1.561982750
 H        5.464973298    15.029680473     4.121539145
 H        3.867019856    14.910356129     3.356242917
 H        4.247297957    16.261515410     4.414010668
 H        7.266085679    12.738173126     0.331613867
 H        8.713476655    12.739302573     1.330215491
 H        8.552580968    13.920807440     0.037068232
 H        8.082032001    15.840590836     3.319026091
 H        9.034607196    15.791128797     1.823854080
 H        9.179849613    14.503218119     3.011133291
 H       -4.785764806     8.980247567    -2.560968136
 H       -5.640933008     7.508751578    -2.110490480
 H       -5.915719306     8.209260091    -3.697413616
 H       -3.822642987     5.045480390    -4.216795096
 H       -5.309887095     5.859981131    -4.735122425
 H       -5.125621186     5.320210904    -3.073318687
 H       -2.035894769     7.887663677    -7.783829239
 H       -0.903226514     6.543931351    -7.718987674
 H       -0.552887720     8.013624886    -6.819833119
 H       -1.527853012     5.375064851    -4.222650991
 H       -0.249434922     6.507666934    -4.693620011
 H       -0.621682516     5.119697208    -5.707224293
 H       -6.352475931    12.106543979     2.153050345
 H       -5.638371396    12.516565380     3.706651100
 H       -5.083844337    11.084167235     2.851429221
 H       -2.282323530    13.682927270     2.566321637
 H       -2.630143074    12.017230395     3.072565883
 H       -3.333911189    13.374231939     3.939607217
 H       -1.883964694    12.122267389    -1.976334614
 H       -1.450330679    13.788556546    -2.314393056
 H       -3.088631914    13.236557839    -2.651308362
 H       -3.315706182    15.489307545     0.443235750
 H       -3.952381327    15.253675277    -1.196357160
 H       -2.267747434    15.694300097    -0.951408690
 H       -0.665791346     0.881882567    -2.867059571
 H       -0.778748784    -0.659820991    -3.705731618
 H        0.770693040    -0.138728694    -3.057147507
 H       -0.457389092    -2.971569421    -0.787942621
 H        0.904335490    -2.446061227    -1.795326673
 H       -0.643371572    -2.837612897    -2.530229439
 H        0.898666689    -0.136162055     2.953954109
 H       -0.521933371    -0.834159211     3.716804553
 H       -0.631303550     0.760132327     2.982216168
 H       -2.534210735    -1.672995411     0.708289410
 H       -2.698777259    -0.160902356     1.624744402
 H       -2.441998806    -1.684752866     2.462190299

