187   

Si        0.000000000     0.000000000     0.000000000
 C        1.865373740     0.000000000     0.000000000
 C       -0.681442411     1.709940205     0.000000000
 C        0.134384532     2.814840395     0.262598620
 C       -0.395933426     4.105044993     0.259222905
 C       -1.752400343     4.319401255     0.001997371
 C       -2.569437579     3.210637170    -0.257326484
 C       -2.042488256     1.922284985    -0.259025768
 C       -2.351561898     5.649745973    -0.012075810
 C       -1.683489184     6.793427842     0.215250447
 C       -2.285194824     8.122779304     0.200582429
 C       -1.470442501     9.234202079     0.454991915
 C       -2.000491310    10.521826418     0.451462798
 C       -3.363779119    10.726314098     0.205531563
 C       -4.180027945     9.618770441    -0.047220624
 C       -3.643442673     8.331858715    -0.053907183
Si       -4.077847290    12.421460400     0.197765697
 C       -5.875282818    12.332148733     0.515280829
 C       -6.832745393    12.924421080    -0.210131913
 C       -8.263450136    12.824129811     0.083426689
 C       -9.176080942    13.489008132    -0.748299017
 C      -10.539573461    13.425714786    -0.513669796
 C      -11.040882125    12.723519753     0.604572289
 C      -10.125345865    12.055330494     1.439913158
 C       -8.764681564    12.091813183     1.162586325
 N      -12.425369738    12.668115356     0.829341594
 C      -13.233333567    13.830648596     0.421977876
 C      -12.881654558    12.017788270     2.065945173
 C      -12.795488017    15.179050603     1.018594980
 C      -13.254971872    15.405908776     2.468895846
 N      -14.669631662    15.785190462     2.633057029
 C      -15.133062373    16.893376408     1.905306517
 C      -14.269616086    17.987306417     1.675942333
 C      -14.708847638    19.088799358     0.960509858
 C      -16.027127642    19.170852066     0.489012431
 C      -16.888527224    18.100820760     0.743786660
 C      -16.460415515    16.980430550     1.444789604
 C      -15.587855075    14.647160763     2.782222337
 C      -16.439055175    20.358030391    -0.262076380
 C      -17.669548642    20.541818574    -0.757897396
Si      -18.240236366    21.999318183    -1.701142943
 C      -19.076911496    21.447414761    -3.243568702
 C      -18.800663410    20.185497974    -3.780498841
 C      -19.431220997    19.760812666    -4.949278452
 C      -20.340427925    20.589704247    -5.612230723
 C      -20.609827240    21.855954523    -5.075768848
 C      -19.985601490    22.281842989    -3.906153169
 C      -21.023336653    20.187214224    -6.837292592
 C      -20.855759289    19.004794598    -7.453479867
 C      -21.538430844    18.601902209    -8.678504230
 C      -22.451075372    19.427716381    -9.339834236
 C      -23.081167337    19.001927704   -10.509096520
 C      -22.805902976    17.740749458   -11.046830280
 C      -21.890360413    16.910615140   -10.385708317
 C      -21.267807375    17.336001114    -9.215472650
Si      -23.629266497    17.164505414   -12.589129468
 C      -24.470391241    18.568712263   -13.483708637
 C      -22.312538497    16.367312805   -13.709145663
 C      -24.931642302    15.845519184   -12.156574386
 C      -19.469097695    22.973550531    -0.623138242
 C      -16.790122664    23.141804683    -2.156537128
 C       -3.271678885    13.460932209     1.572910247
 C       -3.710179225    13.238716333    -1.479469693
 C       -0.656833549    -0.902013234    -1.542309295
 C       -0.608589399    -0.926594475     1.547367422
 H        1.202453283     2.710052982     0.472145454
 H        0.261558322     4.948608666     0.461461954
 H       -3.628733616     3.355574624    -0.461130246
 H       -2.727928479     1.096896440    -0.471291508
 H       -3.423987737     5.665565034    -0.228238410
 H       -0.611286559     6.778406032     0.431232595
 H       -0.410303362     9.092713883     0.655553217
 H       -1.316409861    11.351036988     0.651013063
 H       -5.251797037     9.721176522    -0.247827253
 H       -4.297393644     7.485914356    -0.257657859
 H       -6.127768015    11.729092029     1.403637811
 H       -6.615559548    13.536834129    -1.095040707
 H       -8.810136021    14.057638247    -1.604153907
 H      -11.221298838    13.921375827    -1.199037529
 H      -10.466060532    11.497127462     2.305308349
 H       -8.078999989    11.549372948     1.816172928
 H      -13.982705843    12.035892115     2.120345713
 H      -12.476885716    12.476197825     2.983240965
 H      -12.582520689    10.952420510     2.042423417
 H      -15.110534760    13.850158279     3.376022757
 H      -15.923936482    14.218082984     1.824053882
 H      -16.477666287    14.977569088     3.351665792
 H      -13.253030908    17.970309516     2.058824357
 H      -14.018212222    19.912591658     0.775976848
 H      -17.920339507    18.137991763     0.389561492
 H      -17.164010189    16.173132209     1.617615832
 H      -15.632615737    21.092854358    -0.384429971
 H      -18.459990073    19.787122103    -0.608572323
 H      -18.094071158    19.495514228    -3.307443766
 H      -19.205017886    18.772252063    -5.344589511
 H      -21.314750404    22.516402605    -5.576857861
 H      -20.235670737    23.278804068    -3.533373169
 H      -21.710255660    20.934651512    -7.244926934
 H      -20.168594384    18.257337581    -7.046018823
 H      -22.679463092    20.415853575    -8.944594859
 H      -23.786508533    19.691801395   -10.980618380
 H      -21.635604413    15.914959718   -10.759743466
 H      -20.561114148    16.676387054    -8.715396093
 H      -13.194031979    13.887998962    -0.693253615
 H      -14.299445492    13.627636006     0.664369792
 H      -11.690112061    15.265949746     0.973039367
 H      -13.175780800    15.998554665     0.374244481
 H      -13.052888606    14.501892739     3.083966249
 H      -12.639729349    16.217186565     2.929363984
 H        2.262827067    -1.030246295    -0.031336207
 H        2.275145697     0.487107077     0.902108975
 H        2.261411259     0.535168457    -0.882181178
 H      -24.924955805    18.222603996   -14.429154823
 H      -23.748320006    19.366641351   -13.735620264
 H      -25.273176974    19.020084423   -12.874822096
 H      -21.889310119    15.501601474   -13.121033902
 C      -22.882607176    15.808355584   -15.024876566
 C      -21.153917678    17.328000669   -14.032437300
 H      -25.428417847    15.576539255   -13.133402072
 C      -24.332661582    14.560190903   -11.557981750
 C      -26.015472862    16.376533973   -11.200533508
 H      -19.769466668    23.875476608    -1.230963520
 C      -20.742310734    22.168692495    -0.307022934
 C      -18.849349758    23.471828626     0.694196409
 H      -16.258347917    23.369899135    -1.187591173
 C      -15.786487199    22.465949743    -3.108687050
 C      -17.238018046    24.476682120    -2.778415366
 H       -2.173109780    13.512969295     1.320789136
 C       -3.814246168    14.899532325     1.635637007
 C       -3.410156711    12.810680662     2.961032467
 H       -4.248970741    14.230120589    -1.466644857
 C       -2.213062042    13.513908876    -1.707798182
 C       -4.247062368    12.414717119    -2.664024757
 H       -1.781369383    -0.905338121    -1.443010671
 C       -0.302331630    -0.169357193    -2.848980237
 C       -0.188753571    -2.364586154    -1.644348043
 H       -0.109740731    -1.938185606     1.511771497
 C       -0.186510982    -0.231993071     2.855133880
 C       -2.131385558    -1.148552548     1.576673645
 H      -23.669154279    15.057778128   -14.873951861
 H      -22.086722892    15.308261954   -15.595888040
 H      -23.286980847    16.589066532   -15.682652105
 H      -20.659479691    17.728978859   -13.135965712
 H      -21.463813913    18.182142720   -14.648960853
 H      -20.375390476    16.801322463   -14.602566062
 H      -23.616205218    14.062618995   -12.223727972
 H      -25.130908755    13.828430656   -11.365741870
 H      -23.835753288    14.729957312   -10.592363540
 H      -26.554742513    17.248143607   -11.593085986
 H      -25.617085257    16.648733245   -10.212467391
 H      -26.774110275    15.600811303   -11.022965027
 H      -21.266825747    21.812633903    -1.204880396
 H      -21.460243667    22.798018141     0.237965415
 H      -20.549658375    21.296581001     0.332823090
 H      -17.983656693    24.130225114     0.546614111
 H      -18.534694821    22.652063007     1.356091841
 H      -19.588096300    24.057208539     1.260078194
 H      -15.382085526    21.520216350    -2.723029833
 H      -14.923612857    23.125283359    -3.277809998
 H      -16.214392717    22.258909566    -4.100342842
 H      -17.875770645    25.074303367    -2.114783528
 H      -17.770231876    24.348178934    -3.731498861
 H      -16.359934668    25.100128642    -3.001709122
 H       -3.669856545    15.460113712     0.703083456
 H       -3.290538092    15.465707264     2.419091531
 H       -4.883549875    14.942976293     1.887570555
 H       -3.006282825    11.789359916     3.006112138
 H       -4.449916131    12.772374626     3.313733331
 H       -2.852690045    13.394060614     3.707608359
 H       -1.774957542    14.187875722    -0.960769153
 H       -2.065297023    14.000587855    -2.682931072
 H       -1.607609601    12.596741260    -1.730697602
 H       -5.324347499    12.207933736    -2.604011704
 H       -3.734131461    11.448535766    -2.777448421
 H       -4.088757718    12.959111480    -3.605528757
 H       -0.657140562     0.871051626    -2.872828923
 H       -0.774122883    -0.673890460    -3.704170614
 H        0.776123528    -0.155658976    -3.054873298
 H       -0.470062745    -2.973045998    -0.775199105
 H        0.896684281    -2.458355826    -1.781267845
 H       -0.650841236    -2.845971684    -2.518555364
 H        0.899661258    -0.108203005     2.953021872
 H       -0.506379923    -0.830870586     3.719895104
 H       -0.646877070     0.758716106     2.980038085
 H       -2.505690042    -1.716639648     0.715750164
 H       -2.698662491    -0.208935702     1.634476400
 H       -2.408791972    -1.727796711     2.469516649

