187   

Si        0.000000000     0.000000000     0.000000000
 C        1.865277923     0.000000000     0.000000000
 C       -0.696232765     1.703304093     0.000000000
 C        0.118105976     2.826888319     0.170618489
 C       -0.432017307     4.109127609     0.167135069
 C       -1.806580818     4.295915093     0.002009579
 C       -2.621782534     3.168313332    -0.167076420
 C       -2.075286667     1.888554422    -0.170693130
 C       -2.430320810     5.614620458    -0.008945416
 C       -1.774609659     6.778829372     0.134803343
 C       -2.411663613     8.091962838     0.121866271
 C       -3.789928420     8.255223240    -0.044949702
 C       -4.361233912     9.526833584    -0.051678024
 C       -3.560742451    10.664890130     0.089611232
 C       -2.178840182    10.506246952     0.253331858
 C       -1.613812934     9.233540561     0.274657302
Si       -4.299274937    12.349696030     0.082764272
 C       -3.092791196    13.545336653    -0.585135734
 C       -2.712440981    14.714872244    -0.053826807
 C       -1.728705261    15.600894913    -0.681598261
 C       -1.382491513    16.809254749    -0.063388435
 C       -0.453667134    17.669398627    -0.634049188
 C        0.220749775    17.308668394    -1.816338822
 C       -0.117380451    16.085620745    -2.432795670
 C       -1.089941340    15.266691874    -1.881267605
 N        1.170051285    18.139059417    -2.437550063
 C        1.579845392    19.384170961    -1.778901426
 C        2.271252441    17.453986978    -3.138206036
 C        2.493917307    19.194965574    -0.555738280
 C        3.054127935    20.531920396    -0.035811609
 N        2.053536801    21.564678425     0.315242884
 C        0.894563662    21.058081870     0.958771346
 C        1.074907287    20.366325830     2.172962488
 C       -0.019192249    19.849382840     2.846482468
 C       -1.318428997    20.006879179     2.339729916
 C       -1.492420151    20.710796877     1.146542309
 C       -0.404893181    21.248818509     0.466774000
 C        1.821867261    22.544188129    -0.759268089
 C       -2.440188565    19.441265988     3.090579595
 C       -3.719739952    19.529939029     2.704037691
Si       -5.115555896    18.820769743     3.647425347
 C       -4.786010256    18.781262677     5.456045901
 C       -4.014112184    19.789430920     6.044823509
 C       -3.754677970    19.774722013     7.414333022
 C       -4.269013037    18.760861136     8.227577211
 C       -5.048818087    17.757693893     7.637572001
 C       -5.307725911    17.768070818     6.269188362
 C       -4.023448143    18.705246125     9.664910050
 C       -3.295047938    19.602197493    10.351063504
 C       -3.048428866    19.548237168    11.788188196
 C       -3.558897939    18.534889610    12.603459681
 C       -3.297931260    18.522485803    13.973625029
 C       -2.514449216    19.522777221    14.557750883
 C       -2.001303434    20.540368575    13.742001133
 C       -2.267921854    20.553053320    12.375849798
Si       -2.161594977    19.519458144    16.364596714
 C       -2.566352244    17.871388819    17.138804971
 C       -0.319987101    19.929958017    16.617354985
 C       -3.202835860    20.869061708    17.211771157
 C       -6.692678498    19.811198038     3.288711120
 C       -5.321790746    17.034858037     3.018896735
 C       -5.856975633    12.399212753    -1.007396912
 C       -4.794628177    12.764494573     1.870886789
 C       -0.657821779    -0.899966579    -1.543242945
 C       -0.593010512    -0.935708687     1.548924715
 H        1.199654301     2.742656765     0.307241976
 H        0.223749443     4.967988502     0.297562491
 H       -3.695022929     3.292022033    -0.298961704
 H       -2.760527263     1.047873767    -0.312644572
 H       -3.515809123     5.602996059    -0.147445407
 H       -0.690031237     6.795407272     0.273758754
 H       -4.432229293     7.385250837    -0.167625425
 H       -5.445311657     9.590786906    -0.177976331
 H       -1.507061626    11.363781400     0.367163149
 H       -0.538813833     9.127851479     0.407676690
 H       -2.672188227    13.204919538    -1.548811712
 H       -3.107375699    15.099332488     0.895359541
 H       -1.861560420    17.097677491     0.875009107
 H       -0.243214978    18.615361993    -0.138437170
 H        0.364156292    15.786904570    -3.358425653
 H       -1.346037485    14.337563737    -2.393420553
 H        3.079488435    18.159964802    -3.385744120
 H        1.890033276    17.050988760    -4.094734969
 H        2.703939699    16.625576647    -2.553464809
 H        2.785074203    23.014843313    -1.023587212
 H        1.168371079    23.350890600    -0.380482676
 H        1.374289581    22.128129461    -1.674301994
 H        2.076500228    20.246858013     2.578920361
 H        0.133768081    19.313185808     3.783843720
 H       -2.493016085    20.848049423     0.733839818
 H       -0.577442041    21.796602160    -0.454767513
 H       -2.131472426    18.939253520     4.018500889
 H       -4.002686472    20.028035875     1.764204385
 H       -3.588746750    20.611532169     5.459129114
 H       -3.146244345    20.566835047     7.847405299
 H       -5.459728377    16.959892521     8.253214863
 H       -5.925546026    16.960870694     5.866343533
 H       -4.485469013    17.855462395    10.175668981
 H       -2.833477708    20.452153663     9.839562751
 H       -4.168342878    17.742466671    12.173015565
 H       -3.724845184    17.703984094    14.559755040
 H       -1.382671310    21.348218494    14.143124608
 H       -1.862166248    21.352658888    11.758878032
 H        2.089339356    20.015879114    -2.543100447
 H        0.655458472    19.939392710    -1.489760844
 H        1.937484454    18.675338695     0.250846188
 H        3.333972390    18.521757393    -0.807726768
 H        3.647841823    20.339952955     0.890692299
 H        3.767708977    20.956673373    -0.774352862
 H        2.262238975    -1.030572692    -0.024656335
 H        2.273743272     0.492727191     0.899829435
 H        2.263125917     0.529518790    -0.884642546
 H       -2.306137735    17.861372401    18.212378088
 H       -2.000196566    17.056071159    16.652758774
 H       -3.640878276    17.632120078    17.055087884
 H       -0.168576887    20.957786369    16.175710707
 C        0.098878150    19.987298482    18.097208603
 C        0.608672356    18.955491567    15.870488276
 H       -2.979085229    20.780534890    18.314110973
 C       -2.840921608    22.296798581    16.764940315
 C       -4.715110372    20.658749824    17.012995823
 H       -6.843503665    19.770440761     2.171026557
 C       -7.943479207    19.217259006     3.960117477
 C       -6.557886444    21.288952806     3.698561961
 H       -6.232650811    16.617813549     3.535169676
 C       -5.548210823    16.942847415     1.500640027
 C       -4.106764277    16.172220675     3.402513155
 H       -6.572691863    11.647176150    -0.565693701
 C       -6.548842546    13.774440110    -1.000137360
 C       -5.573475336    11.987651605    -2.463002947
 H       -5.097317993    13.852901300     1.864829947
 C       -5.991913385    11.944903062     2.382712858
 C       -3.619787715    12.589067535     2.850782165
 H       -1.782431692    -0.899290414    -1.444553695
 C       -0.300514675    -0.167698321    -2.849392484
 C       -0.194063628    -2.363842580    -1.645442619
 H       -0.064891293    -1.932614402     1.519348329
 C       -0.194882498    -0.222608779     2.854334092
 C       -2.108385090    -1.202699784     1.577078897
 H       -0.477471864    20.713575698    18.684753992
 H        1.151921805    20.294294855    18.177266668
 H        0.024198153    19.014575193    18.601202719
 H        0.404926175    18.903053353    14.791322939
 H        0.563960850    17.931772674    16.265163588
 H        1.654329174    19.279948740    15.969953878
 H       -1.792480300    22.560241227    16.953273304
 H       -3.444989342    23.028377209    17.321356691
 H       -3.048531137    22.476219983    15.700521802
 H       -5.073373960    19.689072999    17.381764877
 H       -5.024194939    20.749897715    15.961690119
 H       -5.277937728    21.424314423    17.566201730
 H       -8.159245291    18.187793905     3.646906687
 H       -8.830661279    19.810476176     3.694630322
 H       -7.886477025    19.228431206     5.058090686
 H       -5.719829963    21.803318759     3.208921922
 H       -6.441714681    21.422981055     4.783783464
 H       -7.465352213    21.842333983     3.417633763
 H       -6.423956969    17.505336573     1.154013078
 H       -5.722722663    15.897110877     1.206845759
 H       -4.680678645    17.283149431     0.915812430
 H       -3.901717790    16.154932531     4.482084569
 H       -3.180802015    16.486871889     2.898838995
 H       -4.280930485    15.125724186     3.112848700
 H       -6.870102928    14.094345534    -0.000536037
 H       -7.457088591    13.741846888    -1.618596184
 H       -5.919481105    14.571749725    -1.421537641
 H       -5.106394736    10.997031347    -2.553714200
 H       -4.933089160    12.706352172    -2.993151389
 H       -6.513471092    11.936292938    -3.030378925
 H       -6.905507124    12.092812309     1.793196061
 H       -6.239430319    12.243988024     3.411696455
 H       -5.787649011    10.865489320     2.419690036
 H       -2.738245685    13.191880679     2.590664800
 H       -3.287904004    11.543709904     2.934594521
 H       -3.920172433    12.893756906     3.863467038
 H       -0.653840498     0.873216802    -2.873327077
 H       -0.772422069    -0.671191664    -3.705128404
 H        0.778120106    -0.155825829    -3.054203555
 H       -0.477229347    -2.971525251    -0.776319908
 H        0.891145102    -2.460649973    -1.782034821
 H       -0.657293603    -2.843828995    -2.519780392
 H        0.886979598    -0.066864468     2.954773011
 H       -0.500041781    -0.825889138     3.721316448
 H       -0.683571489     0.755303235     2.972682662
 H       -2.469514392    -1.763877519     0.706132847
 H       -2.701867777    -0.281148845     1.656053350
 H       -2.365768794    -1.807560255     2.458918835

