187   

Si        0.000000000     0.000000000     0.000000000
 C        1.865182549     0.000000000     0.000000000
 C       -0.674557751     1.711288092     0.000000000
 C        0.150437829     2.819651794     0.214242307
 C       -0.380165573     4.109455018     0.210475411
 C       -1.743854196     4.319355157    -0.009858215
 C       -2.569443956     3.206657129    -0.219064217
 C       -2.044772118     1.917783650    -0.208170088
 C       -2.345953399     5.647058988    -0.023352110
 C       -1.678966888     6.797528612     0.169430732
 C       -2.301826443     8.116505391     0.151773688
 C       -3.669421147     8.289623039    -0.071727284
 C       -4.234618763     9.563082384    -0.082553703
 C       -3.447299290    10.691409056     0.164288092
 C       -2.076412335    10.521336119     0.400177484
 C       -1.510998187     9.248656509     0.388233196
Si       -4.172303472    12.379894458     0.154789600
 C       -3.757866199    13.322419009     1.665422090
 C       -3.554187732    12.716496024     2.842865930
 C       -3.220466928    13.413751920     4.084391429
 C       -3.033756631    12.651018591     5.248090108
 C       -2.716584463    13.256349877     6.451385820
 C       -2.625269463    14.661121350     6.533309149
 C       -2.815798054    15.427189665     5.374454724
 C       -3.091201941    14.800918308     4.162604495
 N       -2.297014924    15.223714293     7.792383230
 C       -3.193412482    14.809209566     8.895646588
 C       -1.984991510    16.662238558     7.803785245
 C       -4.687379755    14.692484798     8.541793023
 C       -5.272896741    16.028264053     8.053228994
 N       -6.731763057    16.018873923     7.894694216
 C       -7.310850386    15.377406264     6.790110524
 C       -6.548214650    14.953108154     5.682604847
 C       -7.157859878    14.321616987     4.608215336
 C       -8.545896400    14.126752072     4.569185440
 C       -9.303446845    14.572803854     5.656758382
 C       -8.708915072    15.190984712     6.746843477
 C       -7.458921896    15.934978826     9.172202232
 C       -9.153021505    13.455746418     3.417654232
 C      -10.468040227    13.226291256     3.293834073
Si      -11.279666525    12.395340198     1.882389489
 C      -10.177482009    11.154257190     1.082537738
 C       -9.810282838     9.998804145     1.786939993
 C       -8.978475596     9.046031920     1.204418949
 C       -8.495236421     9.215802377    -0.100011309
 C       -8.864602666    10.366031788    -0.802496814
 C       -9.695025730    11.323276031    -0.219258880
 C       -7.626011299     8.191652772    -0.670647873
 C       -7.100564961     8.246549788    -1.906336997
 C       -6.230339142     7.234808545    -2.495587386
 C       -5.843265654     6.075054758    -1.819711739
 C       -5.008220114     5.139645155    -2.431964856
 C       -4.518287831     5.356830897    -3.723248258
 C       -4.893063489     6.528422594    -4.395894191
 C       -5.735520672     7.454482715    -3.788475114
Si       -3.414056790     4.140080539    -4.557444380
 C       -3.403316943     2.493860667    -3.683260430
 C       -4.020012374     3.921990186    -6.349812849
 C       -1.637812204     4.821296918    -4.613696850
 C      -12.872148573    11.555519585     2.502753817
 C      -11.792009583    13.734675777     0.622155772
 C       -3.662485269    13.313235508    -1.412952410
 C       -6.071121461    12.231958243     0.228347508
 C       -0.664105776    -0.866018151    -1.561284269
 C       -0.612880101    -0.945173684     1.532850328
 H        1.224957882     2.717169713     0.388082614
 H        0.281895220     4.956180524     0.381812961
 H       -3.637846134     3.347682893    -0.375257177
 H       -2.738268779     1.087778529    -0.371122254
 H       -3.423836027     5.657646245    -0.220024773
 H       -0.602336337     6.797481709     0.357954109
 H       -4.308866823     7.427721305    -0.261693423
 H       -5.308936863     9.628329744    -0.289295251
 H       -1.414804266    11.368628413     0.603946550
 H       -0.444168128     9.135322555     0.567898969
 H       -3.707932729    14.413765123     1.555140600
 H       -3.607072299    11.623945344     2.964812601
 H       -3.127843864    11.565140631     5.202793985
 H       -2.536960814    12.652179496     7.336985049
 H       -2.751116367    16.510097174     5.404773315
 H       -3.224323845    15.412553768     3.269540944
 H       -1.561557471    16.927097233     8.788406884
 H       -2.844141446    17.320333093     7.604269641
 H       -1.198249060    16.868995192     7.055578284
 H       -6.849273354    16.341178261     9.995203892
 H       -7.750922772    14.904288983     9.433844461
 H       -8.370577880    16.557802170     9.110463518
 H       -5.468278320    15.089035922     5.666726995
 H       -6.537819425    13.978045146     3.776235596
 H      -10.385931957    14.438304908     5.655845483
 H       -9.336111778    15.530130429     7.564014866
 H       -8.420318364    13.146497461     2.658084073
 H      -11.175128297    13.559512685     4.070230320
 H      -10.146531055     9.815132249     2.812659220
 H       -8.701615746     8.159578953     1.772029327
 H       -8.507097421    10.525430073    -1.818252512
 H       -9.953533810    12.195449799    -0.826240809
 H       -7.420287175     7.343392276    -0.012127396
 H       -7.312195635     9.098592345    -2.560459244
 H       -6.210436243     5.881361155    -0.813546049
 H       -4.757252366     4.237941046    -1.866430572
 H       -4.538959856     6.755695055    -5.405497436
 H       -6.011790065     8.359047149    -4.326993435
 H       -2.824500424    13.814564557     9.245753624
 H       -3.059358443    15.502841351     9.753293737
 H       -4.842700468    13.914499300     7.765891893
 H       -5.242639510    14.332387111     9.427553994
 H       -5.015994305    16.845824234     8.765894640
 H       -4.812174610    16.318154476     7.078843551
 H        2.263530885    -1.029743121    -0.034069755
 H        2.273622994     0.484107530     0.904446062
 H        2.262157509     0.538032651    -0.879917849
 H       -2.805825721     1.751748234    -4.242466291
 H       -4.425087639     2.088784263    -3.579687539
 H       -2.962920037     2.574411617    -2.671383813
 H       -3.913391084     4.932899223    -6.839986884
 C       -3.184230643     2.916423100    -7.162001115
 C       -5.503195127     3.516088089    -6.426270370
 H       -1.044139275     4.069781655    -5.210371950
 C       -1.529847875     6.186213571    -5.317746658
 C       -0.995853948     4.936901653    -3.221686497
 H      -13.540725079    12.399320497     2.844153084
 C      -13.606299277    10.782580452     1.392927050
 C      -12.659041613    10.618511197     3.704708709
 H      -12.072910840    13.180346487    -0.319098379
 C      -13.013642764    14.561214550     1.064171655
 C      -10.645720493    14.707339092     0.289494654
 H       -4.167968256    14.320608851    -1.359695853
 C       -2.143727892    13.548396064    -1.499383354
 C       -4.134735494    12.609315204    -2.698685553
 H       -6.380924205    11.576600551    -0.635629217
 C       -6.513007839    11.553814168     1.537141186
 C       -6.800166505    13.578461401     0.089532490
 H       -1.785345082    -0.908002717    -1.436755362
 C       -0.364795329    -0.075085833    -2.848014498
 C       -0.154004583    -2.308120138    -1.726483683
 H       -0.109775577    -1.954392971     1.487961641
 C       -0.197553853    -0.262865160     2.849374044
 C       -2.134679142    -1.174724414     1.556755615
 H       -2.119196935     3.177520695    -7.212957441
 H       -3.541813640     2.884335716    -8.201256090
 H       -3.259640119     1.889824969    -6.779779675
 H       -6.173215749     4.222539754    -5.916153004
 H       -5.696468948     2.518379182    -6.010577389
 H       -5.832208541     3.483410140    -7.474523258
 H       -1.901584457     6.179542023    -6.349207163
 H       -0.476011693     6.495900701    -5.373329789
 H       -2.053022865     6.986063961    -4.773057556
 H       -0.956863885     3.984774580    -2.673644338
 H       -1.504666726     5.665983597    -2.572123278
 H        0.044058057     5.280465424    -3.310801132
 H      -13.880139244    11.407388161     0.532829805
 H      -14.546184139    10.365365397     1.781751628
 H      -13.027186153     9.929890292     1.010262656
 H      -12.099350191    11.080829455     4.529149693
 H      -12.145381103     9.686585445     3.432344991
 H      -13.630991054    10.318573098     4.122030209
 H      -13.919799968    13.958421522     1.204287636
 H      -13.261338141    15.305753882     0.293622165
 H      -12.837287389    15.126125119     1.989661506
 H       -9.739210845    14.214182938    -0.085510827
 H      -10.349331968    15.322163818     1.152874638
 H      -10.961117933    15.408508075    -0.495610811
 H       -1.734814648    14.084538608    -0.632564697
 H       -1.906850890    14.161294431    -2.380560136
 H       -1.574301597    12.614900934    -1.614585277
 H       -5.224688308    12.488730975    -2.752507052
 H       -3.682191098    11.615779236    -2.833767701
 H       -3.845680704    13.199623581    -3.579441462
 H       -6.068259588    10.561723156     1.696045873
 H       -7.601403793    11.388647073     1.524123326
 H       -6.297549066    12.155669431     2.431478408
 H       -6.586272350    14.095228669    -0.853531206
 H       -6.580575032    14.273322807     0.911928529
 H       -7.888403724    13.411066979     0.110938325
 H       -0.763665836     0.950359969    -2.828791784
 H       -0.830197829    -0.570596438    -3.711796208
 H        0.707960000    -0.008027067    -3.071560410
 H       -0.390653598    -2.954261001    -0.871361553
 H        0.929563002    -2.362037958    -1.896144800
 H       -0.625345689    -2.775145811    -2.603480592
 H        0.887823650    -0.134949286     2.951639166
 H       -0.516946126    -0.872562185     3.706771765
 H       -0.662671134     0.724336956     2.983762611
 H       -2.507572051    -1.722136396     0.682003706
 H       -2.705599772    -0.239407892     1.640190256
 H       -2.408649735    -1.778467565     2.434397736

