187   

Si        0.000000000     0.000000000     0.000000000
 C        1.865022230     0.000000000     0.000000000
 C       -0.674795783     1.713091735     0.000000000
 C        0.102830721     2.790049220    -0.438060279
 C       -0.413768852     4.085597385    -0.435772603
 C       -1.718734646     4.333117476    -0.002065535
 C       -2.498593348     3.252388568     0.431110335
 C       -1.985689535     1.958208149     0.430138243
 C       -2.302493432     5.670026352     0.018493743
 C       -1.669619006     6.791116643    -0.367410971
 C       -2.262503208     8.124439388    -0.343066717
 C       -1.495217545     9.215280117    -0.772970540
 C       -2.022003117    10.504806933    -0.766172463
 C       -3.334565423    10.730399677    -0.336044169
 C       -4.103479487     9.643051115     0.094255256
 C       -3.569804357     8.355556561     0.094224214
Si       -4.063681541    12.419782372    -0.313435945
 C       -5.881536778    12.240019683    -0.375977771
 C       -6.770976730    12.825899746     0.435097606
 C       -8.218725771    12.631034622     0.320709808
 C       -9.066942475    13.292433526     1.222440997
 C      -10.441885993    13.136841484     1.150620572
 C      -11.005431646    12.286655567     0.180139735
 C      -10.164207927    11.630276807    -0.727743455
 C       -8.787905425    11.821408540    -0.664882055
 N      -12.426443152    12.171958519     0.161087218
 C      -12.957629743    11.476377810     1.359055671
 C      -12.996397469    11.638303101    -1.089736709
 C      -12.311251561    10.106567574     1.641746825
 C      -11.281191052    10.185061825     2.788386536
 N      -10.208114938     9.178110504     2.702010114
 C      -10.604035460     7.834160366     2.584197482
 C      -11.726790079     7.374738593     3.306770225
 C      -12.133224085     6.054770839     3.204640631
 C      -11.418010654     5.133250220     2.425464080
 C      -10.289797716     5.583538936     1.735325306
 C       -9.878236363     6.907915391     1.811977873
 C       -9.068942442     9.611707776     1.878169182
 C      -11.890729529     3.750194999     2.351658436
 C      -11.288719242     2.787158644     1.640428512
Si      -11.871084086     1.057710769     1.541938471
 C      -13.697040307     0.928216593     1.723797509
 C      -14.518511703     1.961817393     1.254538826
 C      -15.902058932     1.878399964     1.384915279
 C      -16.500448911     0.756309085     1.973156685
 C      -15.679186158    -0.277292541     2.431934762
 C      -14.292724996    -0.194524869     2.307295267
 C      -17.954594474     0.715085102     2.087437904
 C      -18.650973714    -0.296416569     2.633240914
 C      -20.105041686    -0.338103213     2.747746213
 C      -20.927665675     0.694191201     2.289703280
 C      -22.314036499     0.612637625     2.419578850
 C      -22.908850879    -0.508955265     3.005622145
 C      -22.086052875    -1.546366236     3.465206271
 C      -20.702434830    -1.459391324     3.339418728
Si      -24.736870467    -0.631897439     3.184391669
 C      -25.615112524     0.657929317     2.162369801
 C      -25.273460852    -2.376485755     2.643808969
 C      -25.212016022    -0.392316742     5.012055706
 C      -11.377878994     0.358170771    -0.157376205
 C      -11.002690117     0.040055866     2.895067333
 C       -3.503461159    13.329182967     1.257607347
 C       -3.487070181    13.400812750    -1.835602284
 C       -0.626897931    -0.911989499    -1.548366689
 C       -0.650761487    -0.914731553     1.537745716
 H        1.130509520     2.658544557    -0.787861302
 H        0.213002641     4.907081378    -0.777786488
 H       -3.517829550     3.423464520     0.772824180
 H       -2.641510410     1.155279714     0.778204063
 H       -3.333282851     5.711387926     0.383853991
 H       -0.639500913     6.753149556    -0.732461828
 H       -0.474639882     9.056365095    -1.115829019
 H       -1.376959684    11.317980997    -1.109341777
 H       -5.134340149     9.761383132     0.445329169
 H       -4.185784616     7.526205405     0.438175426
 H       -6.212698984    11.577112710    -1.195108909
 H       -6.483079582    13.498486886     1.252340862
 H       -8.641244979    13.945688482     1.984323127
 H      -11.094938826    13.678377383     1.832251462
 H      -10.574763950    10.970422621    -1.486906071
 H       -8.151195094    11.316261768    -1.393244134
 H      -14.086475320    11.816090496    -1.078363108
 H      -12.821652417    10.563201584    -1.249798536
 H      -12.588970879    12.198477831    -1.949201862
 H       -8.824400267    10.667009347     2.100004503
 H       -9.251595501     9.532628376     0.793700080
 H       -8.177235995     9.015859140     2.143650433
 H      -12.278486461     8.057786979     3.945936364
 H      -13.016385081     5.724923809     3.753380631
 H       -9.715599395     4.888032567     1.121662871
 H       -8.999351084     7.216210751     1.254533158
 H      -12.803675656     3.572898810     2.937930722
 H      -10.368833001     2.990192148     1.071195094
 H      -14.106625544     2.859641680     0.781033013
 H      -16.523658592     2.694385117     1.021447884
 H      -16.118387349    -1.160324734     2.892027475
 H      -13.703216549    -1.034468363     2.684769356
 H      -18.470060691     1.592380206     1.685752359
 H      -18.135601111    -1.173994546     3.034493084
 H      -20.490003764     1.575972854     1.825371819
 H      -22.905075246     1.452060350     2.043156881
 H      -22.494960356    -2.447493986     3.930962216
 H      -20.079936515    -2.274494985     3.703626217
 H      -12.826207244    12.162987938     2.225225844
 H      -14.056561539    11.363596497     1.230433563
 H      -13.086173728     9.357212655     1.886448188
 H      -11.822906417     9.717658525     0.727083015
 H      -10.807957051    11.194177513     2.815355477
 H      -11.789694275    10.063460361     3.771722899
 H        2.263011859    -1.028650446     0.062274617
 H        2.259529938     0.561837652     0.866383444
 H        2.276333019     0.460536688    -0.915093348
 H      -26.711605054     0.548096921     2.239884335
 H      -25.347562050     0.566334128     1.093964827
 H      -25.359835762     1.681678076     2.487519994
 H      -24.739862672    -3.092084218     3.334954301
 C      -26.785671266    -2.625322979     2.784708290
 C      -24.843096596    -2.705228636     1.202811396
 H      -26.339750546    -0.418504952     5.039450993
 C      -24.687336553    -1.504765714     5.937355618
 C      -24.752344235     0.968295939     5.567331833
 H      -10.254793440     0.445903416    -0.216957465
 C      -11.751954997    -1.123795836    -0.333179394
 C      -11.982796214     1.168029963    -1.318244842
 H      -11.342605456    -1.026116544     2.752653102
 C       -9.467788948     0.067406859     2.782303087
 C      -11.407001405     0.487629494     4.311117893
 H       -4.064976662    14.308078281     1.268036340
 C       -3.859025386    12.556850255     2.541304883
 C       -1.996979851    13.644115787     1.271559120
 H       -2.365382205    13.486287464    -1.742769299
 C       -3.800187607    12.677615763    -3.157624167
 C       -4.070296098    14.823592754    -1.891106766
 H       -0.154366597    -1.935917287    -1.514484127
 C       -2.155459510    -1.092131486    -1.572473856
 C       -0.189596595    -0.227440591    -2.856259777
 H       -1.775496543    -0.922662412     1.441108802
 C       -0.177285249    -2.376493602     1.627938004
 C       -0.295279180    -0.190872516     2.848974803
 H      -27.157711474    -2.477081966     3.806698033
 H      -27.020527194    -3.666774151     2.520650395
 H      -27.387402741    -1.996539500     2.115190325
 H      -23.760862505    -2.601571946     1.038750015
 H      -25.351944240    -2.087398919     0.451117618
 H      -25.090811247    -3.749343647     0.964124737
 H      -25.037220137    -2.506394495     5.657442701
 H      -25.038740400    -1.334198825     6.965500703
 H      -23.589827516    -1.532683176     5.990753980
 H      -25.152291627     1.824966787     5.009860079
 H      -23.657869744     1.070626954     5.594479482
 H      -25.098116359     1.088356616     6.604077414
 H      -11.278064506    -1.783495798     0.404735013
 H      -11.422459217    -1.480621618    -1.319731959
 H      -12.836557200    -1.299420127    -0.291669469
 H      -11.712257674     2.232574088    -1.295076507
 H      -13.079893688     1.105218006    -1.356342446
 H      -11.619753452     0.778338752    -2.279725474
 H       -9.094086575    -0.312761755     1.823251318
 H       -9.023000772    -0.570928865     3.559282017
 H       -9.046646601     1.071512846     2.932937620
 H      -12.489987058     0.442124375     4.491557935
 H      -11.076740696     1.510269240     4.545834295
 H      -10.941797557    -0.166495004     5.061712133
 H       -4.929039071    12.326761006     2.635368638
 H       -3.591730390    13.152094063     3.425862445
 H       -3.310200297    11.608091476     2.633026404
 H       -1.676443784    14.280545213     0.436898323
 H       -1.370430629    12.740854806     1.266243247
 H       -1.735955842    14.190261436     2.189972477
 H       -3.382226360    11.662290960    -3.209316702
 H       -3.364842823    13.231155602    -4.001993983
 H       -4.877271475    12.604133750    -3.361099426
 H       -3.812224481    15.434903257    -1.016677031
 H       -5.164860991    14.834688238    -1.993614672
 H       -3.675075678    15.358388276    -2.766863820
 H       -2.539851217    -1.665474521    -0.719397561
 H       -2.454139723    -1.647244202    -2.473644606
 H       -2.697940539    -0.136696878    -1.608526824
 H        0.899261008    -0.133078695    -2.956547325
 H       -0.624193172     0.775025500    -2.979437944
 H       -0.527220223    -0.816724250    -3.720917707
 H       -0.456885960    -2.979080739     0.754162441
 H       -0.637275998    -2.866622671     2.498421685
 H        0.908548766    -2.467618005     1.763640222
 H       -0.650819745     0.849011927     2.881390601
 H        0.783708378    -0.177218799     3.052753836
 H       -0.764374509    -0.702467426     3.701492038

