187   

Si        0.000000000     0.000000000     0.000000000
 C        1.865242280     0.000000000     0.000000000
 C       -0.681251669     1.709866655     0.000000000
 C        0.109127505     2.800542230    -0.376241684
 C       -0.416648154     4.092463609    -0.372849677
 C       -1.743417284     4.323027771    -0.000000400
 C       -2.535509810     3.228334665     0.371725619
 C       -2.013504601     1.937870068     0.370219325
 C       -2.336823753     5.655816799     0.018896302
 C       -1.691216069     6.787019057    -0.312046000
 C       -2.287110781     8.118840306    -0.292281684
 C       -3.614586260     8.344105044     0.081418086
 C       -4.144472998     9.634201737     0.086270707
 C       -3.360482942    10.725797531    -0.298803863
 C       -2.029433012    10.502671975    -0.676986022
 C       -1.499799507     9.215523999    -0.668414332
Si       -4.030143252    12.438930323    -0.303091626
 C       -3.384354054    13.410633700    -1.712787145
 C       -3.046059884    12.846414100    -2.879804624
 C       -2.525737583    13.571108874    -4.038866339
 C       -2.214247075    12.843484574    -5.196518343
 C       -1.718230400    13.473294560    -6.325807926
 C       -1.623166047    14.880006086    -6.372628935
 C       -1.957799051    15.612947878    -5.219250042
 C       -2.371522047    14.959161306    -4.064549354
 N       -1.114155472    15.497505954    -7.535301615
 C       -1.539345653    14.932498034    -8.832417116
 C       -1.109704969    16.971178287    -7.544730089
 C       -3.040164559    15.092107232    -9.143806567
 C       -3.808065982    13.762512190    -8.994456825
 N       -5.261786310    13.924613251    -8.773286114
 C       -5.553944047    14.603593473    -7.552329246
 C       -5.218339347    13.941943231    -6.356393304
 C       -5.474064429    14.543183143    -5.135479178
 C       -6.119390406    15.787310124    -5.067639544
 C       -6.472244739    16.426386829    -6.257180172
 C       -6.193118199    15.847783367    -7.491755406
 C       -5.960937531    14.433238308    -9.966152973
 C       -6.365115563    16.378060473    -3.750806296
 C       -6.971224947    17.557851624    -3.562750254
Si       -7.284468238    18.307115583    -1.926095739
 C       -5.989418770    17.796575931    -0.723400715
 C       -4.685826061    17.576669825    -1.186547101
 C       -3.677833698    17.189237611    -0.307042338
 C       -3.941944162    17.041852406     1.057934804
 C       -5.243180399    17.273080308     1.521090922
 C       -6.257995551    17.643217696     0.640834844
 C       -2.914233962    16.638000693     2.011312489
 C       -1.634536062    16.388921921     1.685088531
 C       -0.599161488    15.984721500     2.629696295
 C       -0.848205042    15.815067930     3.993862728
 C        0.172705086    15.427242396     4.861302992
 C        1.461544177    15.182692507     4.377324161
 C        1.711794995    15.345675509     3.007844271
 C        0.693963902    15.744017999     2.146376715
Si        2.822550843    14.670016100     5.505732910
 C        2.176807177    14.210233412     7.194116467
 C        3.706357889    13.182888394     4.711023050
 C        4.070605960    16.093869125     5.695213333
 C       -7.225214213    20.198796248    -2.114792039
 C       -9.014828814    17.808525826    -1.318429532
 C       -5.926960534    12.455768432    -0.409109579
 C       -3.486763237    13.266443874     1.318940533
 C       -0.619688929    -0.917208562    -1.548534983
 C       -0.651640960    -0.912368609     1.538903534
 H        1.153761151     2.682955700    -0.677080741
 H        0.220473395     4.924807072    -0.666153496
 H       -3.571713129     3.385801658     0.665092187
 H       -2.679605812     1.123814803     0.669400244
 H       -3.384648995     5.685041454     0.331918580
 H       -0.643372602     6.758951823    -0.624849081
 H       -4.247894393     7.509904960     0.376749994
 H       -5.187131831     9.748521565     0.394491799
 H       -1.370526001    11.321242300    -0.986858337
 H       -0.462945677     9.061625314    -0.960737793
 H       -3.308305395    14.494913850    -1.545439645
 H       -3.125484038    11.763164668    -3.056555624
 H       -2.330201675    11.758491780    -5.200085486
 H       -1.405849792    12.876213138    -7.177956222
 H       -1.903167064    16.696687993    -5.212935723
 H       -2.603943009    15.549217130    -3.176489866
 H       -0.659254294    17.335993674    -8.482928200
 H       -0.469993628    17.335448941    -6.720387401
 H       -2.111852314    17.419142987    -7.443957727
 H       -5.807538612    13.718477236   -10.793273418
 H       -5.631642711    15.428185420   -10.300656230
 H       -7.046193443    14.466795508    -9.764338593
 H       -4.745075416    12.961564891    -6.395857819
 H       -5.178440561    14.031826409    -4.214603298
 H       -6.970796445    17.395236336    -6.230109740
 H       -6.467248076    16.375836072    -8.399263492
 H       -5.994358098    15.756303904    -2.922297156
 H       -7.342311849    18.150676814    -4.412536976
 H       -4.417855982    17.690471281    -2.243395606
 H       -2.676017863    17.007845786    -0.692965692
 H       -5.468584378    17.160748876     2.579512201
 H       -7.255520635    17.805370073     1.056841052
 H       -3.255369564    16.547817090     3.045866847
 H       -1.295966356    16.479218530     0.647857306
 H       -1.845360418    15.990431743     4.393183006
 H       -0.079938279    15.317186583     5.919516133
 H        2.699359584    15.165299007     2.573478305
 H        0.907070861    15.866377055     1.085784809
 H       -0.932716245    15.427419849    -9.625522865
 H       -1.237505730    13.861772574    -8.865325485
 H       -3.484572634    15.852123243    -8.469451179
 H       -3.176416134    15.492160461   -10.163186847
 H       -3.664311677    13.127586339    -9.894792396
 H       -3.406047719    13.179944552    -8.132560079
 H        2.262919649    -1.029371739     0.049296962
 H        2.260321755     0.551029845     0.872916354
 H        2.275738194     0.471804392    -0.909770409
 H        2.994482889    13.867218081     7.853055195
 H        1.439836461    13.389258030     7.126413513
 H        1.685644012    15.064762699     7.691482611
 H        4.123238735    13.558802201     3.731551169
 C        4.880799312    12.647511914     5.548881531
 C        2.742504316    12.024241689     4.397799767
 H        4.832616731    15.731959751     6.444819572
 C        4.814000356    16.445432001     4.394180239
 C        3.422449807    17.374188412     6.253613419
 H       -8.036271740    20.464685671    -2.852407380
 C       -7.509696791    20.946906798    -0.800956601
 C       -5.881407145    20.685509218    -2.686919276
 H       -9.178353497    18.365248739    -0.350742568
 C      -10.134490070    18.213479261    -2.294107621
 C       -9.128552192    16.301720574    -1.028148973
 H       -6.295029351    11.840545824     0.461386525
 C       -6.518169144    13.870006471    -0.276546969
 C       -6.452931911    11.816785460    -1.707017251
 H       -3.712456592    14.367474742     1.199170043
 C       -4.247703296    12.757352160     2.555031057
 C       -1.976717804    13.108144660     1.565577982
 H       -0.138032980    -1.936834194    -1.514287364
 C       -2.146422756    -1.111406812    -1.574917357
 C       -0.187209233    -0.228468400    -2.855928855
 H       -1.776178481    -0.921759475     1.440683847
 C       -0.176286302    -2.373176546     1.633662379
 C       -0.299468539    -0.184434087     2.848866253
 H        5.647687057    13.404538718     5.757463112
 H        5.389109125    11.836696875     5.006760114
 H        4.562011460    12.220584007     6.509068911
 H        1.904744161    12.319222812     3.749172480
 H        2.316310789    11.563501964     5.298840353
 H        3.275407556    11.223928059     3.864655377
 H        5.370536129    15.601174819     3.967954249
 H        5.555735448    17.234236924     4.587672535
 H        4.146844352    16.839041621     3.614617636
 H        2.936613479    17.229043676     7.227078077
 H        2.677123027    17.807845586     5.571495082
 H        4.187925349    18.148797758     6.405161179
 H       -8.497655696    20.724652714    -0.377859113
 H       -7.487858003    22.032779047    -0.973857906
 H       -6.759380926    20.746712816    -0.022725231
 H       -5.630816503    20.234364669    -3.656798868
 H       -5.036907444    20.502426283    -2.007057477
 H       -5.912852532    21.771923066    -2.850898586
 H      -10.169720038    19.291233026    -2.496976844
 H      -11.114771306    17.950540689    -1.870895630
 H      -10.068215885    17.691840727    -3.259528690
 H       -8.415922704    15.952331642    -0.267862294
 H       -8.988469172    15.680996704    -1.925476371
 H      -10.130624352    16.064984590    -0.643983950
 H       -6.233717388    14.381386303     0.652945594
 H       -7.616130205    13.818714314    -0.277664226
 H       -6.238690862    14.530568509    -1.110404229
 H       -6.120454764    10.779942231    -1.849238901
 H       -6.168724931    12.381112331    -2.607574822
 H       -7.551519515    11.789065432    -1.695625962
 H       -5.330500001    12.924858918     2.498555646
 H       -3.900068041    13.290257515     3.452287632
 H       -4.080808722    11.689273134     2.750939615
 H       -1.356721580    13.535813068     0.766254337
 H       -1.668276177    12.063446473     1.708634111
 H       -1.688314161    13.638082734     2.487145114
 H       -2.527373784    -1.684709282    -0.720342310
 H       -2.438069192    -1.672727813    -2.474522253
 H       -2.697215340    -0.160922715    -1.616218911
 H        0.900809805    -0.123819552    -2.954910389
 H       -0.630706609     0.770171799    -2.979062119
 H       -0.518538949    -0.820481156    -3.721065386
 H       -0.452999245    -2.978084444     0.760580382
 H       -0.637492605    -2.861907995     2.504226377
 H        0.909384057    -2.462164105     1.771873006
 H       -0.657263559     0.854851871     2.877469578
 H        0.779088468    -0.168082435     3.054320764
 H       -0.769171447    -0.694500882     3.701864691

