187   

Si        0.000000000     0.000000000     0.000000000
 C        1.865178749     0.000000000     0.000000000
 C       -0.659150467     1.719621279     0.000000000
 C        0.101353337     2.779268752    -0.506511869
 C       -0.402706756     4.079783880    -0.504098960
 C       -1.681715075     4.348495639    -0.010133549
 C       -2.444023018     3.286340122     0.492315020
 C       -1.938702781     1.989452112     0.499816947
 C       -2.257539496     5.688005958     0.016146113
 C       -1.642734064     6.799953060    -0.421041138
 C       -2.235298540     8.133059203    -0.386699605
 C       -1.495683078     9.218494984    -0.872043108
 C       -2.025889918    10.507424560    -0.856783425
 C       -3.316721689    10.735672389    -0.369629070
 C       -4.060602631     9.650144552     0.111310561
 C       -3.523882190     8.365061866     0.104534422
Si       -4.077368004    12.410978399    -0.320855279
 C       -5.853178464    12.294984968    -0.743278415
 C       -6.345757818    11.356744599    -1.563255880
 C       -7.757556350    11.232432951    -1.923984197
 C       -8.138770387    10.200519117    -2.795772202
 C       -9.459939943    10.035484530    -3.171121197
 C      -10.465712119    10.862181066    -2.622271219
 C      -10.085005080    11.893479312    -1.745410948
 C       -8.744441815    12.087598398    -1.431254291
 N      -11.798964565    10.667148329    -3.026019664
 C      -12.272498502     9.267845442    -3.117704554
 C      -12.803650753    11.590140422    -2.474580569
 C      -11.731812268     8.285764364    -2.065580355
 C      -12.119802677     8.630141926    -0.614889630
 N      -11.051549516     8.345236480     0.371715891
 C      -10.392272973     7.104858104     0.182851740
 C      -11.184534513     5.944433245     0.061720315
 C      -10.587536899     4.708942087    -0.124046447
 C       -9.190425852     4.576444311    -0.147927577
 C       -8.408926944     5.724625486    -0.002684639
 C       -8.994343250     6.975458996     0.162422217
 C      -10.177612207     9.504242902     0.621263692
 C       -8.617410571     3.244186303    -0.348033988
 C       -7.303730556     2.984495267    -0.390609429
Si       -6.603137519     1.314074409    -0.641455154
 C       -7.694549224     0.236586684    -1.657610210
 C       -8.528891016     0.801065484    -2.630924220
 C       -9.358206853    -0.006434331    -3.404646314
 C       -9.363447553    -1.397472689    -3.237491241
 C       -8.521096118    -1.959272286    -2.273994089
 C       -7.692426355    -1.152836291    -1.494897556
 C      -10.250023226    -2.201522602    -4.071984000
 C      -10.354392867    -3.539875917    -4.010151109
 C      -11.241152675    -4.343537434    -4.844888666
 C      -12.083480321    -3.782532820    -5.808258332
 C      -12.915568349    -4.588675360    -6.584834962
 C      -12.918484974    -5.977072033    -6.418135780
 C      -12.074169577    -6.542453668    -5.452873757
 C      -11.248747495    -5.734693725    -4.675593374
Si      -14.010657661    -7.054761757    -7.435052737
 C      -14.727716974    -6.130331945    -8.887982886
 C      -12.987552406    -8.541009989    -8.041601550
 C      -15.439530822    -7.703960779    -6.357844384
 C       -4.934928192     1.487554776    -1.537107361
 C       -6.307434554     0.508774922     1.058900517
 C       -3.912986545    13.120318225     1.435427719
 C       -3.211142038    13.582477243    -1.541534800
 C       -0.676983833    -0.858121164    -1.558151036
 C       -0.592371783    -0.976849143     1.525266318
 H        1.106676144     2.630236807    -0.910002244
 H        0.211863330     4.887698767    -0.896172541
 H       -3.440390051     3.479609071     0.889221887
 H       -2.576528298     1.197147320     0.906677229
 H       -3.269410728     5.740226682     0.431828866
 H       -0.632805783     6.754828561    -0.836808000
 H       -0.492709185     9.058163099    -1.262615261
 H       -1.399324572    11.317113989    -1.239913803
 H       -5.077735905     9.769774150     0.502275642
 H       -4.121979257     7.538404349     0.485168077
 H       -6.496456713    13.063798001    -0.293002600
 H       -5.714286774    10.585534775    -2.030023006
 H       -7.380184541     9.527946701    -3.200847791
 H       -9.724456857     9.271261772    -3.898051297
 H      -10.825442900    12.555367238    -1.309503688
 H       -8.470677341    12.911808594    -0.771129881
 H      -13.775370264    11.412633359    -2.967089366
 H      -12.514247802    12.629399668    -2.717985730
 H      -12.942720162    11.507294701    -1.385173135
 H      -10.797877524    10.380108220     0.874496256
 H       -9.535868973     9.775845186    -0.235636639
 H       -9.538881078     9.298152393     1.498217935
 H      -12.267148944     6.022992366     0.114317133
 H      -11.214925445     3.824159366    -0.236270660
 H       -7.320713941     5.649301147    -0.024020110
 H       -8.352990938     7.848186594     0.253289116
 H       -9.380837368     2.461619272    -0.465429418
 H       -6.558689012     3.784269894    -0.259463090
 H       -8.559974561     1.880907205    -2.812111863
 H      -10.005480164     0.451002913    -4.150530109
 H       -8.504281934    -3.037187836    -2.125378380
 H       -7.052821717    -1.650450294    -0.760682462
 H      -10.852265856    -1.628808923    -4.783421700
 H       -9.752123397    -4.112758480    -3.299046309
 H      -12.097144870    -2.704885662    -5.960693206
 H      -13.552548136    -4.091968976    -7.321881399
 H      -12.033562185    -7.621420756    -5.278761080
 H      -10.601190432    -6.192081068    -3.929976648
 H      -13.384267540     9.256664451    -3.100627879
 H      -11.977631682     8.904994306    -4.133871018
 H      -12.085476757     7.265274414    -2.312868096
 H      -10.626207967     8.216063821    -2.143528418
 H      -12.408596386     9.698743064    -0.526627387
 H      -13.016411516     8.045827647    -0.306565835
 H        2.266005901    -1.027529509     0.057902699
 H        2.267152793     0.564384759     0.860533590
 H        2.267474917     0.458893251    -0.920636054
 H      -15.345324657    -6.795729479    -9.517308197
 H      -13.927594513    -5.716890112    -9.528545138
 H      -15.367816101    -5.291212670    -8.563782169
 H      -12.627548814    -9.069115275    -7.111049201
 C      -13.802123486    -9.550008198    -8.870361107
 C      -11.748453455    -8.113221184    -8.848797239
 H      -16.095880285    -8.304117306    -7.052189558
 C      -14.981036847    -8.629930633    -5.217054936
 C      -16.290184116    -6.568576202    -5.759409290
 H       -4.243130980     2.022674937    -0.822731893
 C       -4.302231338     0.130426703    -1.888439888
 C       -5.036063764     2.337715535    -2.815752954
 H       -5.736838040    -0.443583492     0.859888727
 C       -5.469661559     1.375608710     2.015195003
 C       -7.627067632     0.139730805     1.761041932
 H       -4.386326110    14.144005901     1.403343672
 C       -4.667882456    12.278374099     2.480014827
 C       -2.450934942    13.282838807     1.886120505
 H       -2.126916368    13.610902584    -1.230037620
 C       -3.281049106    13.072742271    -2.992368717
 C       -3.756263080    15.021186474    -1.493531749
 H       -1.794653128    -0.923317505    -1.404126314
 C       -0.426536723    -0.051410665    -2.844516461
 C       -0.141491794    -2.287611710    -1.749949267
 H        0.077415121    -1.885256735     1.567643268
 C       -0.404452455    -0.189098521     2.834703904
 C       -2.046334172    -1.478278724     1.452423665
 H      -14.669608741    -9.954633741    -8.333142165
 H      -13.173838251   -10.413557884    -9.133151558
 H      -14.161812263    -9.132682687    -9.820212122
 H      -11.085964340    -7.430456009    -8.297538662
 H      -12.002429462    -7.629945483    -9.801499089
 H      -11.140419911    -8.993679503    -9.101030500
 H      -14.433427678    -9.514346641    -5.566322317
 H      -15.855098009    -9.008674961    -4.667301206
 H      -14.353965206    -8.114785625    -4.475668592
 H      -16.726912734    -5.904745393    -6.516525446
 H      -15.728620025    -5.941987423    -5.051461892
 H      -17.135310891    -6.988241045    -5.195103996
 H       -4.091189114    -0.492364235    -1.009823304
 H       -3.337581660     0.291367895    -2.395402807
 H       -4.913443236    -0.463839208    -2.582003101
 H       -5.433290985     3.346665493    -2.640202819
 H       -5.651328509     1.868478275    -3.595522955
 H       -4.035906939     2.476095374    -3.252557729
 H       -4.474875928     1.621141793     1.623268924
 H       -5.303305101     0.839203474     2.960451219
 H       -5.968243788     2.318022111     2.283054963
 H       -8.268586914    -0.528058709     1.169860490
 H       -8.229520582     1.020194035     2.027970315
 H       -7.420315246    -0.388267620     2.702363114
 H       -5.736611145    12.159258259     2.255614193
 H       -4.611489851    12.762218007     3.465514112
 H       -4.240184635    11.273422622     2.607834491
 H       -1.865164252    13.945567930     1.236312906
 H       -1.915618591    12.324972264     1.956094044
 H       -2.414083596    13.727592800     2.891214834
 H       -2.861448964    12.065997919    -3.124535806
 H       -2.705734072    13.735544644    -3.653934326
 H       -4.306778992    13.055685260    -3.389165755
 H       -3.666186389    15.489321186    -0.505091797
 H       -4.808332159    15.090139341    -1.803555362
 H       -3.190390437    15.660052617    -2.187154492
 H       -0.831987710     0.969823556    -2.802287427
 H       -0.916814717    -0.541671510    -3.698008316
 H        0.637576559     0.025302123    -3.103304235
 H       -0.336973061    -2.946040954    -0.893823769
 H        0.937317652    -2.316556113    -1.952782647
 H       -0.629359335    -2.757534487    -2.616606751
 H        0.631611890     0.132673311     3.005169624
 H       -0.675135906    -0.816386074     3.695873075
 H       -1.039538772     0.706372620     2.892025093
 H       -2.239911950    -2.121737234     0.584411986
 H       -2.786966770    -0.667064482     1.439858330
 H       -2.275978970    -2.085720261     2.340148834

