187   

Si        0.000000000     0.000000000     0.000000000
 C        1.865012485     0.000000000     0.000000000
 C       -0.684868683     1.708216497     0.000000000
 C        0.125567897     2.806041355     0.305593463
 C       -0.400818255     4.097210823     0.303462018
 C       -1.750229376     4.317995448     0.015698434
 C       -2.563780173     3.216118307    -0.279044605
 C       -2.039485136     1.926585008    -0.285423567
 C       -2.340463114     5.652002807     0.002911452
 C       -1.664036055     6.784131027     0.260731831
 C       -2.247292598     8.120526581     0.249755307
 C       -1.422337136     9.216167891     0.538136012
 C       -1.933442323    10.511011128     0.539827451
 C       -3.284570114    10.737471557     0.251534980
 C       -4.109448732     9.646822157    -0.043434418
 C       -3.592412442     8.351892478    -0.050079458
Si       -3.977122155    12.439711395     0.249038261
 C       -5.793899232    12.324037578     0.415510229
 C       -6.675726895    12.948312098    -0.374979187
 C       -8.129677542    12.850113628    -0.234549276
 C       -8.931965594    13.562730207    -1.138965786
 C      -10.313171570    13.511734893    -1.059715164
 C      -10.935290211    12.701166822    -0.089949338
 C      -10.138049798    11.979687485     0.809639869
 C       -8.751186089    12.067055394     0.740681883
 N      -12.356846080    12.694989793    -0.063303547
 C      -12.974304143    12.261606609    -1.335619025
 C      -12.971029151    12.088056521     1.127770660
 C      -12.441595527    10.932496651    -1.903660010
 C      -13.305745320     9.727930573    -1.488016198
 N      -12.558511185     8.455161856    -1.429690237
 C      -11.635162798     8.340654378    -0.362651461
 C      -12.086581173     8.632026675     0.940962687
 C      -11.222994490     8.535229870     2.018804289
 C       -9.913432296     8.059353997     1.854949168
 C       -9.478819253     7.736484582     0.567637134
 C      -10.319122396     7.880738393    -0.531471027
 C      -12.084971159     8.021387839    -2.754798427
 C       -9.049857694     7.981121180     3.034211220
 C       -7.782457014     7.548151446     3.026371101
Si       -6.719129830     7.458144721     4.512953921
 C       -5.930606277     5.803251017     4.651172972
 C       -6.566766554     4.685422684     4.099650366
 C       -5.985402000     3.421775591     4.193749672
 C       -4.769367857     3.242880169     4.859437157
 C       -4.138793378     4.362739116     5.417859377
 C       -4.709526825     5.629042720     5.313330366
 C       -4.125489885     1.938500164     4.981757635
 C       -4.626007364     0.791812264     4.491341227
 C       -3.987572307    -0.514574060     4.610243116
 C       -2.765028765    -0.701784351     5.261391750
 C       -2.191294429    -1.969853021     5.351031003
 C       -2.832940128    -3.083843155     4.797880264
 C       -4.059585631    -2.898833372     4.147757664
 C       -4.627556865    -1.630593359     4.054849626
Si       -2.058264799    -4.750202009     4.927111327
 C       -1.194169591    -4.953973422     6.567087040
 C       -3.387575939    -6.096032644     4.716954986
 C       -0.794546111    -4.947362615     3.515585251
 C       -5.394578385     8.815508950     4.365314967
 C       -7.725409160     7.782766405     6.095025837
 C       -3.253919297    13.452753793     1.685792510
 C       -3.494067446    13.291475356    -1.383018550
 C       -0.666472976    -0.942762648    -1.511889656
 C       -0.631162373    -0.871862510     1.567352825
 H        1.186589577     2.695250756     0.544305633
 H        0.252943386     4.935722538     0.535390575
 H       -3.618865713     3.366324656    -0.499880178
 H       -2.721950439     1.104983020    -0.521044296
 H       -3.408624433     5.679708645    -0.231664459
 H       -0.597454174     6.752678704     0.500532175
 H       -0.370688855     9.055529787     0.766388668
 H       -1.245262877    11.327496770     0.773831953
 H       -5.172777110     9.768278835    -0.278835259
 H       -4.250729669     7.517553054    -0.286929517
 H       -6.126144025    11.686444223     1.251828383
 H       -6.370247011    13.595178540    -1.208678122
 H       -8.464885139    14.177995193    -1.907722357
 H      -10.921874888    14.097990869    -1.743533378
 H      -10.589529087    11.328172703     1.554257553
 H       -8.150143800    11.496671950     1.451224970
 H      -14.059714634    12.261485749     1.101182462
 H      -12.583724592    12.598268730     2.028707118
 H      -12.786789858    11.007279506     1.232950828
 H      -12.926568395     8.051800293    -3.467847445
 H      -11.752456704     6.969414737    -2.695251938
 H      -11.263798286     8.633852310    -3.160154778
 H      -13.122806298     8.919770697     1.101837291
 H      -11.580952815     8.800402624     3.013975955
 H       -8.460557305     7.375990966     0.411766715
 H       -9.935739278     7.646062643    -1.519729379
 H       -9.554415192     8.318472264     3.950368307
 H       -7.291270645     7.220229523     2.096680430
 H       -7.523585713     4.763322054     3.573391416
 H       -6.492566962     2.570228942     3.744418088
 H       -3.188326662     4.246099010     5.935052366
 H       -4.168124228     6.467542848     5.759933644
 H       -3.170318617     1.947257103     5.514915074
 H       -5.579874014     0.786175641     3.955800434
 H       -2.248374206     0.147588462     5.705497970
 H       -1.234159151    -2.053519159     5.874084870
 H       -4.607782248    -3.730175615     3.696322992
 H       -5.582127658    -1.508783071     3.546308634
 H      -14.076180370    12.220262401    -1.199139531
 H      -12.794294768    13.078102012    -2.074639168
 H      -12.383646984    10.993015139    -3.005007722
 H      -11.393576107    10.775067608    -1.572199006
 H      -13.777103347     9.908568117    -0.496843469
 H      -14.149902153     9.592275158    -2.200801393
 H        2.263261052    -1.029596965    -0.035433050
 H        2.274242516     0.483743063     0.903979665
 H        2.260788728     0.539033496    -0.879420635
 H       -0.761185714    -5.965076464     6.667046778
 H       -1.902052495    -4.810931384     7.404183468
 H       -0.374559375    -4.225810895     6.695296372
 H       -3.862228678    -5.910366785     3.709651192
 C       -2.817047882    -7.525985735     4.707327633
 C       -4.492353585    -6.009779724     5.785843506
 H       -0.391542926    -5.996703514     3.612521942
 C       -1.419866583    -4.802043919     2.116662863
 C        0.389795169    -3.971269313     3.631369865
 H       -4.857139370     8.837143462     5.356713287
 C       -4.359578062     8.519068183     3.269848786
 C       -6.005258779    10.206528837     4.118589369
 H       -8.256598685     8.764750642     5.933230291
 C       -8.786918347     6.696833710     6.349239043
 C       -6.850342982     7.919199561     7.354078020
 H       -2.143354320    13.509769064     1.491741040
 C       -3.802219338    14.889823674     1.741133550
 C       -3.459736616    12.787325596     3.057381698
 H       -4.038314242    14.279791322    -1.391560523
 C       -1.986371889    13.578726196    -1.498574462
 C       -3.937780521    12.486966196    -2.618596793
 H       -1.792024791    -0.893140357    -1.436468081
 C       -0.256068580    -0.290216315    -2.844193425
 C       -0.263104268    -2.428563593    -1.532871044
 H       -0.173289118    -1.903293344     1.560521078
 C       -0.186343081    -0.155065456     2.855079832
 C       -2.160604296    -1.026438108     1.590646138
 H       -2.082283453    -7.695355050     3.909678862
 H       -3.626044443    -8.251312618     4.537119106
 H       -2.348539030    -7.807906592     5.659525877
 H       -4.977878290    -5.025009971     5.835748064
 H       -4.129719024    -6.248605068     6.794781997
 H       -5.288791264    -6.734529550     5.564830191
 H       -2.227501458    -5.518579587     1.922436248
 H       -0.658359961    -4.980936554     1.343869379
 H       -1.816199969    -3.792252347     1.929895923
 H        0.959282155    -4.086652606     4.562020554
 H        0.084730624    -2.916514063     3.553431046
 H        1.102311880    -4.144849608     2.812009570
 H       -3.842703243     7.557892702     3.397117768
 H       -3.573367127     9.288441447     3.268125124
 H       -4.789269093     8.528545550     2.257138378
 H       -6.707903442    10.522005100     4.899802162
 H       -6.524271220    10.278201030     3.151563996
 H       -5.207928406    10.964052447     4.097575264
 H       -9.482575095     6.555006845     5.511257111
 H       -9.402089591     6.966093553     7.219185765
 H       -8.344614657     5.716026091     6.577292272
 H       -6.137798841     8.752176548     7.300993486
 H       -6.283729254     7.005522110     7.583278952
 H       -7.483059669     8.114000419     8.232114618
 H       -3.607551922    15.466016268     0.827466164
 H       -3.323837406    15.444442736     2.560943264
 H       -4.884067138    14.928368206     1.934113576
 H       -3.086076673    11.754433935     3.102081635
 H       -4.514305186    12.779446766     3.367967901
 H       -2.914295374    13.344097614     3.832545214
 H       -1.606863958    14.240592148    -0.709843697
 H       -1.772708457    14.085009795    -2.451290740
 H       -1.374908824    12.665362380    -1.495920241
 H       -5.013972227    12.267146480    -2.638037053
 H       -3.406830677    11.528681763    -2.714681365
 H       -3.720904703    13.052179167    -3.535701659
 H       -0.561218845     0.762938235    -2.923081349
 H       -0.735922752    -0.812109635    -3.684075510
 H        0.825128273    -0.335977736    -3.029404346
 H       -0.595659003    -2.980339595    -0.643385597
 H        0.819797592    -2.577271177    -1.633966274
 H       -0.723794642    -2.930215502    -2.395866876
 H        0.902615249    -0.094585194     2.967791200
 H       -0.563007950    -0.699950352     3.734711018
 H       -0.591713584     0.864279750     2.937194104
 H       -2.561427466    -1.589626099     0.740259707
 H       -2.688179804    -0.062789789     1.641907018
 H       -2.465894560    -1.576506783     2.496683814

