187   

Si        0.000000000     0.000000000     0.000000000
 C        1.865120692     0.000000000     0.000000000
 C       -0.669318808     1.715189802     0.000000000
 C        0.060187849     2.758706463    -0.580244201
 C       -0.442122762     4.059606708    -0.582969990
 C       -1.684499488     4.347032792    -0.011085906
 C       -2.416683572     3.299650179     0.563308401
 C       -1.918949712     1.999244108     0.565404846
 C       -2.249982392     5.692072269     0.009437137
 C       -1.654565738     6.780656754    -0.506812413
 C       -2.220076719     8.125651669    -0.486266363
 C       -3.463212630     8.411003748     0.086411432
 C       -3.966513559     9.710861519     0.084392609
 C       -3.234459614    10.755295312    -0.491707490
 C       -1.990595401    10.472698097    -1.068624631
 C       -1.492541535     9.171911088    -1.067578409
Si       -3.900604759    12.470192368    -0.493287993
 C       -2.578325477    13.656136120    -0.924057578
 C       -2.661661577    14.615193743    -1.855453495
 C       -1.580255531    15.548685073    -2.173987929
 C       -1.788686569    16.511656291    -3.172288760
 C       -0.798804200    17.418288252    -3.512214082
 C        0.433562381    17.423273881    -2.822424793
 C        0.643583504    16.457282707    -1.820300467
 C       -0.343462145    15.525795551    -1.524205873
 N        1.425430315    18.351797452    -3.182912902
 C        0.967885573    19.692420753    -3.587216160
 C        2.646824526    18.384518934    -2.362530813
 C        0.134587551    20.414474971    -2.508248746
 C        0.209461992    21.945090760    -2.656249653
 N        1.199191821    22.601601137    -1.770664295
 C        2.524840070    22.115717450    -1.937926473
 C        3.131490573    22.306981719    -3.195768667
 C        4.421244921    21.856341865    -3.421585202
 C        5.159449337    21.238633712    -2.399511750
 C        4.562575667    21.075165845    -1.148105349
 C        3.263299746    21.512551873    -0.910275185
 C        0.726706460    22.698809887    -0.378133104
 C        6.519060618    20.780951913    -2.693131838
 C        7.318163493    20.179529214    -1.801926343
Si        9.016450622    19.609375223    -2.173599317
 C        9.820279695    20.645297633    -3.462533121
 C        9.522584616    22.010639173    -3.542926051
 C       10.123052135    22.810322097    -4.514011270
 C       11.041936664    22.268389084    -5.417298958
 C       11.344575712    20.903398395    -5.329182606
 C       10.743819948    20.100577298    -4.362551392
 C       11.694821906    23.066634697    -6.449640905
 C       11.493564519    24.381451805    -6.641192499
 C       12.146008445    25.180419903    -7.673248822
 C       13.061920134    24.639432530    -8.579069141
 C       13.662405526    25.440446186    -9.550384361
 C       13.352841570    26.801060418    -9.641300088
 C       12.433048540    27.345735080    -8.734764476
 C       11.839920494    26.545125290    -7.762730693
Si       14.136518957    27.871898451   -10.917429757
 C       15.015284974    26.861117861   -12.215667317
 C       12.775960341    28.933879348   -11.720278774
 C       15.398458654    29.030312756   -10.087327858
 C       10.047911872    19.704621461    -0.578882769
 C        8.927446416    17.795956120    -2.741326652
 C       -5.344462838    12.583561392    -1.726563758
 C       -4.546410594    12.884404145     1.248372232
 C       -0.631486603    -0.900993554    -1.553105266
 C       -0.647535879    -0.927701036     1.531360434
 H        1.038488552     2.596154731    -1.041182646
 H        0.146509402     4.854159762    -1.037991162
 H       -3.387363112     3.501167503     1.012411637
 H       -2.537270344     1.223357289     1.025026827
 H       -3.229799018     5.768320699     0.489816950
 H       -0.674909223     6.703341956    -0.987643318
 H       -4.050014757     7.615253598     0.541215985
 H       -4.943240793     9.873398576     0.548465782
 H       -1.378721381    11.249999045    -1.538053768
 H       -0.525137641     8.969931531    -1.523604344
 H       -1.663837620    13.527446352    -0.321741832
 H       -3.561201687    14.774155077    -2.464813957
 H       -2.741776904    16.542067554    -3.700930723
 H       -0.976586735    18.127062328    -4.315725027
 H        1.578326975    16.423017407    -1.269831637
 H       -0.148450340    14.776756580    -0.754929516
 H        3.357737986    19.124169008    -2.777482541
 H        3.146344446    17.400568704    -2.411053339
 H        2.465228200    18.649830195    -1.308887301
 H       -0.218592177    23.269795353    -0.366080443
 H        1.456422761    23.275151948     0.217351413
 H        0.552150965    21.728957655     0.113131863
 H        2.583207650    22.819407562    -3.983633490
 H        4.873954780    21.997829652    -4.404128673
 H        5.117653148    20.602385739    -0.336758022
 H        2.827330002    21.364715200     0.073208208
 H        6.830890176    20.986660742    -3.727329303
 H        6.980714541    19.976846671    -0.774170964
 H        8.814697391    22.491941227    -2.859421633
 H        9.870297498    23.868166144    -4.560343411
 H       12.057889707    20.461770877    -6.022445109
 H       11.020127532    19.042903871    -4.342003401
 H       12.388171718    22.510865982    -7.087616417
 H       10.800032360    24.937097170    -6.002900037
 H       13.316719303    23.582217614    -8.532458120
 H       14.372409830    24.960671382   -10.229762009
 H       12.151724909    28.402398826    -8.758923742
 H       11.129069455    26.986650646    -7.066726985
 H        1.866455343    20.295076203    -3.857234586
 H        0.381709233    19.595113989    -4.528637597
 H       -0.915912530    20.073219367    -2.559683233
 H        0.481839040    20.111525278    -1.501723132
 H        0.452186286    22.229092361    -3.704707733
 H       -0.785246362    22.398731289    -2.446926211
 H        2.263089420    -1.028596251     0.061334075
 H        2.258892006     0.561535130     0.866972541
 H        2.277209150     0.462288257    -0.913774367
 H       15.445668050    27.508605942   -13.000511754
 H       14.318824858    26.159707482   -12.710016116
 H       15.840909148    26.268596171   -11.784049763
 H       12.328895842    29.547003469   -10.884396563
 C       13.306128773    29.907786428   -12.787464418
 C       11.649398284    28.082607651   -12.333387474
 H       15.876747731    29.611300572   -10.928195379
 C       14.764331738    30.038734999    -9.112714862
 C       16.507449496    28.260171624    -9.347287058
 H        9.523453977    19.047271389     0.173098229
 C       11.482314915    19.177681005    -0.756806018
 C       10.106011088    21.132772161    -0.007777617
 H        9.993762089    17.467307205    -2.908012191
 C        8.301736639    16.861474387    -1.690452657
 C        8.162515015    17.637063272    -4.067404046
 H       -5.630097938    13.674731164    -1.765876520
 C       -4.938947629    12.140927368    -3.144376944
 C       -6.587695438    11.784102405    -1.297589652
 H       -5.369993235    12.142341940     1.458322119
 C       -3.467474657    12.713997135     2.332776938
 C       -5.141599587    14.299683947     1.349132798
 H       -0.164994153    -1.927720313    -1.525043154
 C       -2.161166481    -1.071054881    -1.575942542
 C       -0.191169701    -0.211910917    -2.857598296
 H       -1.773068857    -0.922339874     1.444705233
 C       -0.190975781    -2.396349643     1.597408098
 C       -0.270933478    -0.227644543     2.849704635
 H       14.067169962    30.600177809   -12.404879057
 H       12.484337955    30.533288149   -13.165615254
 H       13.728809506    29.396076499   -13.662241571
 H       11.182925699    27.395774432   -11.612656900
 H       11.981903175    27.484579721   -13.192180702
 H       10.843629521    28.732886886   -12.702798947
 H       14.012282284    30.685521547    -9.581876119
 H       15.537961485    30.709999696    -8.711764622
 H       14.298866174    29.555375809    -8.242210395
 H       17.070265012    27.575582866    -9.994782671
 H       16.127378828    27.676328672    -8.496583928
 H       17.242896353    28.964492705    -8.932473473
 H       11.525172587    18.127202381    -1.071637014
 H       12.024849678    19.233629189     0.198282684
 H       12.069341396    19.767065220    -1.475981181
 H        9.116212762    21.559693818     0.203520330
 H       10.636746997    21.835143269    -0.666963362
 H       10.652849222    21.135564077     0.945952709
 H        8.837934462    16.860400877    -0.732990911
 H        8.322258307    15.823196227    -2.052623265
 H        7.247221050    17.093648526    -1.485567708
 H        8.583940373    18.232060606    -4.889569140
 H        7.098043426    17.900519703    -3.981417122
 H        8.195009856    16.589509448    -4.398871424
 H       -4.078661764    12.691974076    -3.548800576
 H       -5.769577904    12.307307591    -3.844338612
 H       -4.696971922    11.069739662    -3.202569080
 H       -6.994576192    12.096639512    -0.327632945
 H       -6.405906678    10.701090181    -1.254744184
 H       -7.396400331    11.927820151    -2.028950088
 H       -3.025789128    11.707595149     2.352412865
 H       -3.905043842    12.875734963     3.328079489
 H       -2.645326994    13.436243999     2.236260786
 H       -5.979235704    14.469767254     0.660606442
 H       -4.398228786    15.089743326     1.169929965
 H       -5.535372263    14.471711746     2.360950611
 H       -2.547775433    -1.649030427    -0.727021675
 H       -2.465442764    -1.616014467    -2.481353730
 H       -2.697651818    -0.111774932    -1.601594824
 H        0.898099046    -0.123640814    -2.958352350
 H       -0.620442596     0.793633663    -2.974963296
 H       -0.533101345    -0.794571497    -3.725069648
 H       -0.485736873    -2.983497595     0.718106138
 H       -0.649046270    -2.892827803     2.465221142
 H        0.894848615    -2.502349726     1.721634892
 H       -0.609568870     0.817002855     2.900109555
 H        0.809890722    -0.233328335     3.044263439
 H       -0.740364201    -0.744496226     3.698809096

