187   

Si        0.000000000     0.000000000     0.000000000
 C        1.865038553     0.000000000     0.000000000
 C       -0.685113620     1.708379951     0.000000000
 C        0.104379949     2.804284035     0.362441811
 C       -0.427045337     4.093982177     0.358249313
 C       -1.758188231     4.316906945    -0.003013524
 C       -2.549280906     3.217081896    -0.361546891
 C       -2.021931953     1.928929254    -0.358474509
 C       -2.358676037     5.646391416    -0.022657867
 C       -1.717719527     6.783651836     0.296445639
 C       -2.325471079     8.110234187     0.274349635
 C       -1.544790543     9.217382554     0.630590392
 C       -2.083708520    10.501995955     0.623625079
 C       -3.414391087    10.711094848     0.243882116
 C       -4.195769876     9.606162228    -0.115074193
 C       -3.657411065     8.320949056    -0.094409771
Si       -4.164696433    12.390911436     0.220886332
 C       -5.364393954    12.573051043    -1.146195241
 C       -5.277367909    11.918469765    -2.312289203
 C       -6.234009554    12.059803181    -3.410107160
 C       -6.032135238    11.317801671    -4.583389761
 C       -6.906678296    11.413860203    -5.652381720
 C       -8.058618749    12.227804541    -5.562566713
 C       -8.264170641    12.970393916    -4.383151917
 C       -7.350531520    12.897071624    -3.339897879
 N       -8.931835254    12.312980677    -6.653332420
 C       -9.132506743    11.109897020    -7.476288097
 C      -10.117710773    13.167023401    -6.514774594
 C       -9.485103177     9.823891658    -6.705231938
 C      -10.941326249     9.747507906    -6.213623594
 N      -11.983963538     9.652880776    -7.255779854
 C      -12.421722201    10.897367309    -7.776218322
 C      -13.038032059    11.789966460    -6.875360584
 C      -13.489149818    13.022396046    -7.316582681
 C      -13.379705247    13.389143069    -8.667271934
 C      -12.797380477    12.488262395    -9.561068854
 C      -12.332128286    11.249766448    -9.130705354
 C      -11.737574920     8.590176948    -8.241959738
 C      -13.873731864    14.705066433    -9.076603366
 C      -13.827531366    15.172479344   -10.331247347
Si      -14.452041650    16.822067743   -10.818256083
 C      -14.300858862    18.020500733    -9.430708585
 C      -13.206949390    17.929303546    -8.561332787
 C      -13.067607189    18.824052001    -7.502046008
 C      -14.009848390    19.835456327    -7.293033053
 C      -15.098989813    19.929518983    -8.168844334
 C      -15.242913898    19.035130223    -9.227150313
 C      -13.903428840    20.793375251    -6.197389349
 C      -12.910730197    20.810517588    -5.291685075
 C      -12.801430970    21.766875847    -4.195095978
 C      -13.741297057    22.777925426    -3.979686517
 C      -13.597178188    23.671082136    -2.917966106
 C      -12.511409626    23.566874684    -2.042971701
 C      -11.567871670    22.552661249    -2.256388191
 C      -11.711103591    21.666685978    -3.320372293
Si      -12.306524464    24.737536881    -0.636888396
 C      -13.855295071    25.734625318    -0.342601462
 C      -11.866793451    23.730067440     0.917206953
 C      -10.872319217    25.931964728    -1.010552204
 C      -13.421116172    17.448423380   -12.288270283
 C      -16.265774758    16.660699059   -11.365634482
 C       -5.079294366    12.674522039     1.864801367
 C       -2.813648375    13.717836281     0.037681647
 C       -0.650112483    -0.910871512    -1.540622299
 C       -0.618502239    -0.920312067     1.547141503
 H        1.152517156     2.692326767     0.653270090
 H        0.209136304     4.930510227     0.641592411
 H       -3.588990151     3.368621684    -0.645359787
 H       -2.687740903     1.110597685    -0.646583742
 H       -3.409921527     5.667595504    -0.325466714
 H       -0.667169790     6.765228491     0.599984020
 H       -0.505436696     9.075485290     0.919928934
 H       -1.428654529    11.325959786     0.918993240
 H       -5.242646701     9.710571734    -0.420649143
 H       -4.286740238     7.478044090    -0.373759021
 H       -6.176775979    13.288984476    -0.952200403
 H       -4.469990811    11.205117471    -2.532838496
 H       -5.162507456    10.663814499    -4.663662369
 H       -6.700377340    10.861754085    -6.564215793
 H       -9.134954041    13.608075276    -4.274045176
 H       -7.524391009    13.494330972    -2.443644676
 H      -10.673979112    13.201739027    -7.470371825
 H       -9.798373020    14.202637928    -6.295796126
 H      -10.815122024    12.832080336    -5.729655691
 H      -11.555823968     7.641826356    -7.706458261
 H      -10.887391002     8.778846773    -8.915664995
 H      -12.647375578     8.448777071    -8.852933279
 H      -13.165783595    11.497903026    -5.834666751
 H      -13.954232959    13.708507570    -6.607013028
 H      -12.705419101    12.749911576   -10.615891893
 H      -11.888171152    10.570211194    -9.851668678
 H      -14.288374326    15.288349014    -8.241201532
 H      -13.418695159    14.568741796   -11.154797327
 H      -12.434933948    17.160598043    -8.677756142
 H      -12.211256145    18.729083762    -6.836661523
 H      -15.843277084    20.710258430    -8.024160441
 H      -16.112259651    19.158842231    -9.878426674
 H      -14.711688968    21.528959125    -6.151856418
 H      -12.102294286    20.074776562    -5.338362263
 H      -14.597847840    22.878009658    -4.643707991
 H      -14.364047726    24.441831860    -2.801168030
 H      -10.699301074    22.422535024    -1.604441334
 H      -10.967012321    20.886792710    -3.471103893
 H       -9.915414969    11.324198506    -8.239373526
 H       -8.190259638    10.945119823    -8.053503190
 H       -9.255253928     8.949580727    -7.342590292
 H       -8.815570457     9.723127525    -5.824479221
 H      -11.060038184     8.843474163    -5.568631225
 H      -11.157872187    10.621339082    -5.559129946
 H        2.262639115    -1.029876677    -0.039647709
 H        2.275707445     0.480259889     0.905357875
 H        2.260330960     0.542657584    -0.878030236
 H      -13.737779083    26.405215732     0.527420090
 H      -14.718345832    25.075198549    -0.138519816
 H      -14.109341571    26.362752113    -1.214350118
 H      -10.898663135    23.200637176     0.678711665
 C      -11.633393130    24.598513324     2.166211336
 C      -12.922023618    22.657296368     1.241892429
 H      -10.845843408    26.655945976    -0.145385125
 C       -9.499280381    25.241915031    -1.096257947
 C      -11.099340875    26.739441169    -2.301830343
 H      -13.553020004    16.686494894   -13.109791017
 C      -13.894807577    18.812222399   -12.819785106
 C      -11.921122868    17.535163213   -11.953475256
 H      -16.587296192    17.692825353   -11.689220633
 C      -16.456249823    15.709189701   -12.560404158
 C      -17.185600085    16.208930424   -10.217255057
 H       -5.508739139    13.716112853     1.806689700
 C       -6.244437348    11.688138510     2.062302442
 C       -4.153195290    12.606529292     3.091639634
 H       -2.123185751    13.585923826     0.920045103
 C       -1.988682824    13.537218662    -1.249263178
 C       -3.365191986    15.154348159     0.077988096
 H       -1.774569295    -0.923149141    -1.442046291
 C       -0.299968327    -0.179454624    -2.849167845
 C       -0.171421399    -2.370360094    -1.638459163
 H       -0.132059814    -1.937759264     1.512869121
 C       -0.190502738    -0.230208868     2.855309350
 C       -2.144293996    -1.121552290     1.572046676
 H      -10.840548062    25.346124632     2.034259631
 H      -11.321358190    23.965702004     3.009876228
 H      -12.538417009    25.125256260     2.496754782
 H      -13.103317234    21.961406544     0.410272430
 H      -13.891230411    23.082773053     1.534076281
 H      -12.586234236    22.042105917     2.088868260
 H       -9.221471469    24.707443168    -0.179068955
 H       -8.712438638    25.992085696    -1.263496057
 H       -9.428958225    24.534456870    -1.934472342
 H      -12.024950394    27.329189523    -2.291220451
 H      -11.117198214    26.108607274    -3.202252860
 H      -10.279422868    27.457689190    -2.446046243
 H      -14.936117314    18.807845479   -13.166278154
 H      -13.285208467    19.111103884   -13.685014643
 H      -13.791584765    19.619441373   -12.080269299
 H      -11.492156900    16.581280150   -11.617711576
 H      -11.698035184    18.288963436   -11.184417215
 H      -11.352364509    17.831561787   -12.846390832
 H      -15.891374749    16.009548155   -13.452059625
 H      -17.514138858    15.691285615   -12.860466203
 H      -16.187358606    14.669626612   -12.326395663
 H      -17.149502531    16.870606061    -9.340717160
 H      -16.964575014    15.189304014    -9.869280374
 H      -18.232200894    16.199587276   -10.552869865
 H       -6.982292663    11.716074556     1.248908762
 H       -6.791942329    11.930852083     2.983960422
 H       -5.908338673    10.646786377     2.170320429
 H       -3.344594345    13.348178779     3.069014905
 H       -3.695226385    11.616285687     3.227766222
 H       -4.727312198    12.806298113     4.007939216
 H       -1.511964166    12.550519229    -1.328952516
 H       -1.176018061    14.276159348    -1.284314613
 H       -2.583792591    13.689472648    -2.161773865
 H       -3.902966038    15.389376406     1.005139715
 H       -4.034422205    15.378195730    -0.764695663
 H       -2.538059002    15.875889674     0.012297690
 H       -0.661103438     0.858655999    -2.875981959
 H       -0.767661560    -0.689416281    -3.703305383
 H        0.778605120    -0.159322426    -3.054310878
 H       -0.448948831    -2.978339719    -0.767729198
 H        0.914756449    -2.456739718    -1.774434087
 H       -0.629474275    -2.857548947    -2.511523558
 H        0.896827780    -0.118640633     2.954667075
 H       -0.518168402    -0.825521191     3.719660429
 H       -0.640424805     0.765381881     2.979618132
 H       -2.522859749    -1.690658823     0.713661684
 H       -2.699154175    -0.173804007     1.620019763
 H       -2.433309004    -1.690469248     2.467796563

