187   

Si        0.000000000     0.000000000     0.000000000
 C        1.865043832     0.000000000     0.000000000
 C       -0.681943348     1.709868079     0.000000000
 C        0.102697434     2.797835461    -0.395832740
 C       -0.422559339     4.089937047    -0.392606958
 C       -1.743071040     4.323327855     0.000037532
 C       -2.529622227     3.231435118     0.391148397
 C       -2.008252134     1.940697618     0.389229806
 C       -2.335862379     5.656353492     0.019647093
 C       -1.696020781     6.785522041    -0.329043530
 C       -2.293299814     8.116778354    -0.307772765
 C       -1.513331806     9.213219339    -0.697113566
 C       -2.041931174    10.502126370    -0.692411103
 C       -3.360917935    10.726425078    -0.281896636
 C       -4.141568834     9.632166194     0.110244783
 C       -3.613860682     8.342505435     0.091885995
Si       -4.098040190    12.411852867    -0.260420107
 C       -5.244424614    12.626364181     1.147661151
 C       -5.117632009    11.991052864     2.320630783
 C       -6.032183289    12.159146680     3.450553847
 C       -5.793996749    11.437810003     4.628310827
 C       -6.629480727    11.560617607     5.727360912
 C       -7.780500735    12.374670766     5.664321839
 C       -8.022777026    13.095429439     4.477910052
 C       -7.147118229    13.001114563     3.404867828
 N       -8.633463332    12.504933757     6.774414090
 C       -8.615106977    11.430284735     7.780873512
 C       -9.990493136    13.015350499     6.511524787
 C       -9.132624742    10.085653353     7.244797361
 C       -8.935034191     8.979833504     8.294146557
 N       -9.457912865     7.671688706     7.865860526
 C      -10.846894625     7.551154332     7.685309347
 C      -11.739736072     8.406502986     8.365650772
 C      -13.108156542     8.282993824     8.183709268
 C      -13.644721527     7.278322457     7.367118810
 C      -12.760810559     6.410487066     6.719308572
 C      -11.386773037     6.532777257     6.874614089
 C       -8.599188869     7.015992760     6.863955593
 C      -15.097270143     7.193117679     7.209762199
 C      -15.719532343     6.276361000     6.456322302
Si      -17.532834468     6.162153367     6.253773482
 C      -18.442163868     6.755329416     7.738700109
 C      -17.866986798     6.629141109     9.009944646
 C      -18.547415739     7.075114321    10.139845815
 C      -19.823424890     7.643452164    10.030899499
 C      -20.398806650     7.758801635     8.762480888
 C      -19.718091368     7.317802546     7.628305816
 C      -20.496663564     8.096127786    11.243754575
 C      -21.715599300     8.660945974    11.276925066
 C      -22.389307578     9.113798192    12.489444848
 C      -21.815686215     8.999318244    13.758368123
 C      -22.495760401     9.445738594    14.891421250
 C      -23.770195410    10.010347346    14.779911041
 C      -24.348326410    10.124992101    13.508331810
 C      -23.664651587     9.684275546    12.378677724
Si      -24.681035945    10.604347542    16.265375350
 C      -23.889357267    10.000656146    17.842833689
 C      -24.697479066    12.507786660    16.278612895
 C      -26.477124546     9.984186159    16.151706756
 C      -18.044651667     7.174970920     4.726589478
 C      -17.983434089     4.337900628     5.955157432
 C       -2.733257060    13.732703500    -0.150652948
 C       -5.071159697    12.674083560    -1.873818155
 C       -0.620632319    -0.915744396    -1.548919501
 C       -0.650604137    -0.914085948     1.538348041
 H        1.142473037     2.677766742    -0.712470912
 H        0.209829616     4.920058197    -0.702082612
 H       -3.561135580     3.391029441     0.699298045
 H       -2.670142893     1.128734637     0.703154253
 H       -3.378950158     5.687373872     0.348335277
 H       -0.653552539     6.756026512    -0.658815979
 H       -0.482873276     9.059397875    -1.011237249
 H       -1.388230112    11.317056027    -1.014688686
 H       -5.179602694     9.748685332     0.440691397
 H       -4.242376718     7.507908795     0.396777203
 H       -6.058536265    13.345226154     0.971867157
 H       -4.308048667    11.275055664     2.523178341
 H       -4.928105604    10.776758984     4.689834076
 H       -6.390121781    11.012949304     6.633729903
 H       -8.888791983    13.743788810     4.391415804
 H       -7.349228352    13.585207076     2.505692606
 H      -10.591837664    12.997602141     7.435675370
 H      -10.529014345    12.442609581     5.738364204
 H       -9.924375166    14.071867795     6.194053411
 H       -7.538331854     7.243602877     7.061461805
 H       -8.829425571     7.316779747     5.828375126
 H       -8.712365402     5.920226046     6.952623979
 H      -11.364283246     9.177953401     9.031086195
 H      -13.777518844     8.973125991     8.699582095
 H      -13.150596522     5.617716951     6.078850466
 H      -10.737403734     5.834650862     6.356344868
 H      -15.639778670     7.959931298     7.780946891
 H      -15.150623864     5.525867674     5.886480307
 H      -16.876158390     6.185497178     9.156523733
 H      -18.081424760     6.975536629    11.118467465
 H      -21.389450893     8.195141044     8.649971983
 H      -20.220120584     7.434279318     6.664010661
 H      -19.928840369     7.943221371    12.166287033
 H      -22.283497136     8.813234219    10.354438787
 H      -20.826956786     8.558843978    13.873041204
 H      -21.995043299     9.330708049    15.856764622
 H      -25.342190388    10.556881015    13.360287973
 H      -24.129473343     9.782986533    11.399579583
 H       -7.575246637    11.328608869     8.168330400
 H       -9.224867245    11.760840222     8.652787300
 H      -10.201618675    10.167015120     6.968613908
 H       -8.609892660     9.819998495     6.305254920
 H       -7.853198027     8.858964925     8.532397401
 H       -9.421444186     9.257624843     9.257199934
 H        2.262623380    -1.029289425     0.053783888
 H        2.260320961     0.554661394     0.870544942
 H        2.275938848     0.467689155    -0.911747553
 H      -24.468291674    10.322537475    18.726927078
 H      -22.861875646    10.387480455    17.959552314
 H      -23.839040587     8.896789181    17.863539649
 H      -25.211105791    12.801475726    17.239392534
 C      -23.280051034    13.109191493    16.291626963
 C      -25.484324547    13.126786778    15.109584078
 H      -26.898108623    10.428409800    15.203090166
 C      -26.564945013     8.451908622    16.032738816
 C      -27.362357008    10.448059686    17.322091798
 H      -19.153560349     7.011148907     4.599014823
 C      -17.802082381     8.682786186     4.918588573
 C      -17.346021058     6.717294374     3.433820694
 H      -17.416619139     4.023028496     5.032056863
 C      -17.542629753     3.432437108     7.119272894
 C      -19.483669694     4.120339940     5.692513856
 H       -2.075065257    13.578353667    -1.053869500
 C       -3.276717624    15.171900593    -0.200854327
 C       -1.864710626    13.572190901     1.110019429
 H       -5.489508504    13.720405335    -1.818899595
 C       -4.191670163    12.575663241    -3.132400058
 C       -6.250841637    11.694787501    -2.010156959
 H       -0.138541723    -1.935276146    -1.516273407
 C       -2.147360599    -1.110102791    -1.573601908
 C       -0.189724434    -0.225426391    -2.855927152
 H       -1.775085832    -0.925605020     1.439817295
 C       -0.172602941    -2.374049099     1.632510366
 C       -0.300026757    -0.186224034     2.848782972
 H      -22.673981802    12.780482293    17.145648426
 H      -23.336335771    14.205139695    16.358975042
 H      -22.713370987    12.886192643    15.376091046
 H      -26.534323338    12.810046153    15.074067265
 H      -25.033088276    12.912012236    14.130631118
 H      -25.498429205    14.222371725    15.205440152
 H      -26.002299567     8.050407603    15.177686050
 H      -27.609868597     8.144469185    15.883890326
 H      -26.214755379     7.930079952    16.933174375
 H      -27.405079965    11.539634083    17.429342041
 H      -27.049597994    10.028978013    18.287675852
 H      -28.398324284    10.114446183    17.164076318
 H      -18.322789434     9.101006303     5.791275855
 H      -18.169614749     9.238922000     4.044874417
 H      -16.736256756     8.934490889     5.018591105
 H      -17.531250316     5.664211581     3.186999332
 H      -16.257803942     6.869737912     3.459929329
 H      -17.716847156     7.301734268     2.579457405
 H      -16.466736751     3.490005947     7.334211182
 H      -17.753487657     2.380558112     6.880104843
 H      -18.079441183     3.647915969     8.054485133
 H      -19.853914860     4.657500453     4.810123315
 H      -20.114138000     4.404982913     6.547191213
 H      -19.682628615     3.054591285     5.508367019
 H       -3.842040992    15.392923901    -1.115044824
 H       -2.443318581    15.888880039    -0.175579345
 H       -3.917313089    15.416990086     0.657973494
 H       -1.393326887    12.583345564     1.194480270
 H       -2.425835794    13.749468309     2.039345595
 H       -1.045259512    14.304462809     1.100288394
 H       -3.375957573    13.309585412    -3.152999217
 H       -4.797237655    12.764996114    -4.030526769
 H       -3.748124473    11.578750804    -3.267775243
 H       -6.959358998    11.745430315    -1.172127568
 H       -5.927855743    10.648425306    -2.109505758
 H       -6.828586090    11.924308806    -2.916678845
 H       -2.527384059    -1.683998147    -0.718998486
 H       -2.439926065    -1.671083024    -2.473195980
 H       -2.698438475    -0.159781905    -1.613800272
 H        0.898120479    -0.119421010    -2.955642355
 H       -0.634582072     0.772670272    -2.978285490
 H       -0.520784917    -0.817302327    -3.721351909
 H       -0.447198561    -2.978922326     0.758688483
 H       -0.633811014    -2.864399205     2.502193806
 H        0.913106853    -2.461171499     1.771882263
 H       -0.660299848     0.852044129     2.878422412
 H        0.778600216    -0.167379841     3.054010698
 H       -0.768040927    -0.698288860     3.701546386

