187   

Si        0.000000000     0.000000000     0.000000000
 C        1.865716604     0.000000000     0.000000000
 C       -0.670766947     1.712928565     0.000000000
 C        0.125911091     2.794707499    -0.387697420
 C       -0.391618759     4.088970481    -0.384295249
 C       -1.704646850     4.334375986     0.025793514
 C       -2.501238242     3.249763404     0.413870212
 C       -1.994722739     1.953153844     0.391393745
 C       -2.280187636     5.674531489     0.042682529
 C       -1.616324633     6.782496939    -0.327450655
 C       -2.171528926     8.130168413    -0.318408526
 C       -1.356596281     9.191185181    -0.733251520
 C       -1.839599234    10.497351922    -0.743058439
 C       -3.152392260    10.769276647    -0.343452736
 C       -3.970760478     9.709345080     0.066815670
 C       -3.484128147     8.403758108     0.076618407
Si       -3.830262254    12.478532646    -0.341108019
 C       -4.816694071    12.766740160     1.171248618
 C       -4.555483275    12.152490710     2.333183852
 C       -5.315907656    12.351115835     3.567434088
 C       -4.928668221    11.639011778     4.713415696
 C       -5.610619735    11.786630373     5.908909540
 C       -6.742884981    12.624294827     5.983777462
 C       -7.135115323    13.333824125     4.837909292
 C       -6.414757117    13.207444897     3.654244746
 N       -7.407336148    12.743047018     7.229427770
 C       -7.726186784    11.462235594     7.891354177
 C       -8.525423137    13.699559606     7.286715953
 C       -8.719385617    10.598306647     7.097992013
 C       -8.818285888     9.190644439     7.709607409
 N       -9.948620080     8.386002558     7.200715965
 C       -9.897722221     8.209050308     5.778787971
 C       -9.033631341     7.210739988     5.300556392
 C       -8.930536002     6.980816096     3.936252772
 C       -9.676464938     7.737720811     3.020182759
 C      -10.537856337     8.724644998     3.507403641
 C      -10.658448942     8.957613971     4.873506624
 C      -11.253569095     8.852057211     7.705691979
 C       -9.533476723     7.457488024     1.587928911
 C      -10.197890139     8.119904283     0.631890499
Si      -10.049549151     7.803320132    -1.161663186
 C       -8.384214945     7.177996411    -1.635402360
 C       -7.303845820     8.051983418    -1.797617432
 C       -6.045019565     7.571101495    -2.156646787
 C       -5.838130730     6.206062355    -2.373393562
 C       -6.919221714     5.330588768    -2.208943703
 C       -8.172887511     5.808059174    -1.837788238
 C       -4.545498046     5.646782492    -2.750096983
 C       -3.425243328     6.362768848    -2.941942221
 C       -2.137030400     5.789965373    -3.319088328
 C       -1.952193767     4.419368805    -3.517661508
 C       -0.703540472     3.913619041    -3.877679907
 C        0.394481645     4.767979598    -4.019530566
 C        0.212878403     6.142629371    -3.816737113
 C       -1.039956510     6.646774822    -3.479929692
Si        2.045374831     4.108397239    -4.494302381
 C        2.162077341     2.278295811    -4.150493131
 C        2.337223023     4.420965218    -6.347264701
 C        3.378272830     5.037738163    -3.501132447
 C      -11.378979114     6.526540029    -1.661740692
 C      -10.432252411     9.434925375    -2.071397822
 C       -2.430651550    13.763587679    -0.421673479
 C       -4.943573290    12.697518420    -1.867178793
 C       -0.629453200    -0.903528040    -1.553072582
 C       -0.655886542    -0.914019660     1.534882931
 H        1.163869071     2.669094402    -0.708493244
 H        0.240625795     4.913425625    -0.712386510
 H       -3.528897714     3.419622479     0.729237675
 H       -2.665114907     1.145015701     0.694850235
 H       -3.319391379     5.728665734     0.379224429
 H       -0.579296371     6.717776619    -0.672804520
 H       -0.332686324     8.996651917    -1.045612186
 H       -1.158115050    11.284431424    -1.074752458
 H       -5.004947424     9.865501114     0.395575743
 H       -4.139447538     7.593951602     0.396127132
 H       -5.632145406    13.496715130     1.074666310
 H       -3.739594806    11.422327164     2.446311809
 H       -4.071688125    10.965671003     4.666419838
 H       -5.270046905    11.253775592     6.793235532
 H       -8.003840993    13.983620636     4.855739718
 H       -6.732022064    13.775853308     2.779574561
 H       -8.878260188    13.783071337     8.328817992
 H       -9.381967572    13.428305215     6.649715333
 H       -8.162040583    14.700203041     6.990933796
 H      -11.270937871     8.712349722     8.800634676
 H      -12.053737370     8.219776751     7.283434595
 H      -11.486711571     9.904489222     7.486603731
 H       -8.454621514     6.620704088     6.008878140
 H       -8.257959122     6.203409369     3.573841915
 H      -11.126156627     9.326575533     2.814781239
 H      -11.332020816     9.731902627     5.228405009
 H       -8.808781211     6.662116936     1.368420303
 H      -10.920594272     8.911910172     0.886875947
 H       -7.404782712     9.130601304    -1.638545574
 H       -5.217201991     8.272165707    -2.263359455
 H       -6.779979357     4.263521767    -2.369428366
 H       -8.972827783     5.071291307    -1.723606278
 H       -4.536606743     4.559911303    -2.874204341
 H       -3.425218706     7.449954058    -2.810267932
 H       -2.785316834     3.730582747    -3.389069177
 H       -0.622627779     2.832978839    -4.023468309
 H        1.033703484     6.857255542    -3.917450018
 H       -1.166933467     7.718116561    -3.329888278
 H       -6.775096694    10.906597805     8.056495011
 H       -8.127059973    11.686496239     8.904740973
 H       -9.710961150    11.082816650     7.071412267
 H       -8.400371672    10.523806536     6.037937383
 H       -7.883969733     8.619481774     7.500944128
 H       -8.912826597     9.248398099     8.816065513
 H        2.262747711    -1.029256402     0.050677167
 H        2.259310078     0.551172904     0.873515546
 H        2.277490295     0.471586707    -0.909514691
 H        3.174574462     1.895473140    -4.367480430
 H        1.448686272     1.700553717    -4.763943521
 H        1.943166584     2.063406962    -3.087621365
 H        3.340967546     3.963618998    -6.583246432
 C        1.281261482     3.737107985    -7.235001039
 C        2.396275797     5.915212618    -6.712173442
 H        3.275955836     6.124482506    -3.787928817
 C        3.169423842     4.930170302    -1.979444921
 C        4.812899060     4.596368232    -3.841379689
 H      -11.031323094     6.098303038    -2.646225813
 C      -11.504244632     5.373255904    -0.648747147
 C      -12.778879696     7.127998067    -1.881223641
 H      -11.544907094     9.587558615    -1.952249899
 C       -9.733742605    10.666980887    -1.469937693
 C      -10.118588507     9.364108429    -3.575756189
 H       -1.839749545    13.525174593    -1.352541549
 C       -2.942074582    15.210396847    -0.543707498
 C       -1.481486027    13.673705991     0.786969431
 H       -5.329780306    13.756091664    -1.819404466
 C       -4.186610325    12.522172691    -3.195495706
 C       -6.152697953    11.745673608    -1.856082127
 H       -0.197447117    -1.943899696    -1.500090422
 C       -2.163366201    -1.024461481    -1.604492790
 C       -0.144047602    -0.250003659    -2.859798893
 H       -1.779966277    -0.925478412     1.432618762
 C       -0.178812728    -2.374237271     1.631084002
 C       -0.310138022    -0.186194100     2.846678554
 H        1.233650507     2.649297014    -7.096795120
 H        1.516985299     3.901691420    -8.296101944
 H        0.268969777     4.137907699    -7.079633818
 H        3.194359879     6.459527250    -6.191840308
 H        1.449164430     6.439202119    -6.519018658
 H        2.596454069     6.032096759    -7.787226792
 H        2.184083758     5.292531205    -1.652731978
 H        3.913139414     5.544428196    -1.452299243
 H        3.292382014     3.906415320    -1.601363926
 H        5.063313006     4.710567750    -4.903911884
 H        5.019299442     3.555356107    -3.559685830
 H        5.537051649     5.213086745    -3.289576550
 H      -10.556400063     4.864968754    -0.428776307
 H      -12.183169709     4.601605085    -1.038100287
 H      -11.926065623     5.701169144     0.312864830
 H      -12.812375743     7.861597839    -2.696929040
 H      -13.190074568     7.603156215    -0.980861846
 H      -13.488064183     6.334407583    -2.159154771
 H       -9.916680049    10.793436768    -0.394176939
 H      -10.104844579    11.580875174    -1.955169840
 H       -8.645427056    10.659904056    -1.620896284
 H      -10.658189471     8.561793154    -4.096080373
 H       -9.047578319     9.227187360    -3.784916944
 H      -10.412187319    10.301704966    -4.068516734
 H       -3.559633450    15.380753684    -1.434610370
 H       -2.091872467    15.903316825    -0.623995885
 H       -3.519628318    15.535047845     0.333103398
 H       -1.032464479    12.679975274     0.920220617
 H       -1.972678271    13.941368594     1.734258759
 H       -0.645146299    14.375945675     0.663893573
 H       -3.360571571    13.232801903    -3.323784913
 H       -4.867797953    12.690346192    -4.042163805
 H       -3.778792663    11.509208169    -3.326080460
 H       -6.763502245    11.831090330    -0.946118430
 H       -5.859546865    10.691032990    -1.968436944
 H       -6.817608674    11.973473843    -2.701521518
 H       -2.587182931    -1.563819173    -0.748200923
 H       -2.466610944    -1.587071199    -2.499103244
 H       -2.665851069    -0.048454259    -1.670116727
 H        0.949865419    -0.218408920    -2.948381694
 H       -0.522312762     0.774989496    -2.988865067
 H       -0.505613062    -0.824011775    -3.724681906
 H       -0.450839782    -2.979398192     0.756816700
 H       -0.643035050    -2.864000323     2.499531694
 H        0.906379271    -2.461542306     1.773971749
 H       -0.670588378     0.852309074     2.874287645
 H        0.767620379    -0.167192174     3.055851603
 H       -0.781637549    -0.697785766     3.697729410

