187   

Si        0.000000000     0.000000000     0.000000000
 C        1.865128118     0.000000000     0.000000000
 C       -0.687002719     1.707598276     0.000000000
 C        0.114298234     2.812136411    -0.305333019
 C       -0.421266540     4.100248162    -0.301085125
 C       -1.768544438     4.312461952     0.001844481
 C       -2.571335174     3.204005862     0.303633433
 C       -2.039455391     1.917811117     0.302136593
 C       -2.374509664     5.639530353     0.019232166
 C       -1.724328291     6.785045319    -0.247392930
 C       -2.338881941     8.108626350    -0.227607061
 C       -1.547098564     9.225792074    -0.525487358
 C       -2.091631061    10.507432705    -0.518462276
 C       -3.446504760    10.700060888    -0.221309965
 C       -4.239596683     9.586888571     0.076289850
 C       -3.688630686     8.306139962     0.076737636
Si       -4.178552693    12.386815998    -0.208483838
 C       -5.993679608    12.266375179    -0.387344197
 C       -6.904177787    12.867428642     0.389184244
 C       -8.351004534    12.737298388     0.201922814
 C       -9.211094391    13.415478805     1.080042268
 C      -10.585846700    13.324522690     0.944921759
 C      -11.147213199    12.567003514    -0.104780971
 C      -10.290416790    11.883511257    -0.981654689
 C       -8.912016443    11.957374272    -0.811095449
 N      -12.556946011    12.506698785    -0.197828298
 C      -13.246755348    13.817103057    -0.237657297
 C      -13.110933056    11.527852292    -1.147363563
 C      -12.512534769    14.939777978    -0.988533324
 C      -12.247195278    14.598795447    -2.465715047
 N      -11.251468205    15.485703271    -3.093499255
 C      -11.572309393    16.852117097    -3.177690468
 C      -12.916303596    17.252466083    -3.341090545
 C      -13.243332950    18.595806683    -3.425148210
 C      -12.252276976    19.587614874    -3.400104547
 C      -10.919411675    19.188250332    -3.271369301
 C      -10.575108551    17.846622037    -3.170194940
 C       -9.867840445    15.147553699    -2.716436447
 C      -12.656435759    20.990874214    -3.492331598
 C      -11.804045214    22.024859113    -3.479001309
Si      -12.320833260    23.774721883    -3.594913124
 C      -13.869140306    23.961251736    -4.570921194
 C      -14.098323717    23.118823882    -5.667265515
 C      -15.262583056    23.241642870    -6.420265028
 C      -16.220592261    24.214841413    -6.105922129
 C      -15.985561183    25.058596197    -5.017026770
 C      -14.821918875    24.935593393    -4.258058135
 C      -17.424570581    24.303840109    -6.925314567
 C      -18.420177222    25.185345777    -6.731364563
 C      -19.623537391    25.272755918    -7.552000663
 C      -19.856636388    24.428173676    -8.640319655
 C      -21.021420078    24.546347404    -9.398439441
 C      -21.978307820    25.516932902    -9.085977928
 C      -21.746938199    26.365455583    -7.994662219
 C      -20.585373961    26.242327147    -7.237406014
Si      -23.520585844    25.685678135   -10.076656078
 C      -23.420001340    24.724171429   -11.671994720
 C      -24.998536378    25.038939187    -9.066292173
 C      -23.797589643    27.533893794   -10.438663257
 C      -12.557923091    24.464566447    -1.837733274
 C      -10.936188270    24.756268263    -4.454394011
 C       -3.697934225    13.265885916     1.407191028
 C       -3.500500027    13.388870970    -1.677160010
 C       -0.611816597    -0.923618367    -1.548014354
 C       -0.653579628    -0.907183406     1.541061986
 H        1.174848580     2.708321635    -0.550490250
 H        0.224490901     4.943777173    -0.537960051
 H       -3.623518076     3.347486755     0.542529575
 H       -2.714225031     1.092473624     0.546577930
 H       -3.438764050     5.651270260     0.273959034
 H       -0.660831767     6.776532468    -0.502044812
 H       -0.493704895     9.093426947    -0.764451945
 H       -1.425741728    11.341594543    -0.755510171
 H       -5.303347977     9.679379099     0.319269292
 H       -4.324921797     7.455776177     0.315555098
 H       -6.301495691    11.634255417    -1.237727467
 H       -6.633062695    13.508324842     1.237997102
 H       -8.792553981    14.016290460     1.888286889
 H      -11.240263745    13.829705444     1.651682814
 H      -10.688653622    11.288866266    -1.797773772
 H       -8.265872991    11.404692875    -1.495305319
 H      -14.197272448    11.435112181    -0.970367879
 H      -12.672992314    10.533631562    -0.944917833
 H      -12.950431663    11.776949666    -2.207699197
 H       -9.754015610    14.052668810    -2.620391234
 H       -9.547031263    15.599579415    -1.763446173
 H       -9.184756027    15.474550541    -3.520857952
 H      -13.706065975    16.509454384    -3.397213778
 H      -14.290684742    18.883319247    -3.527906775
 H      -10.128006060    19.938892999    -3.251563763
 H       -9.527349076    17.580536821    -3.074036119
 H      -13.744568613    21.120816691    -3.584759817
 H      -10.719598960    21.870544801    -3.377693510
 H      -13.383630905    22.342085483    -5.961004528
 H      -15.426620439    22.574086440    -7.264115538
 H      -16.713197943    25.823101301    -4.751756922
 H      -14.693891790    25.624619529    -3.418918840
 H      -17.474356201    23.580125159    -7.744349457
 H      -18.370873895    25.909471832    -5.912973460
 H      -19.126412415    23.666139163    -8.906625560
 H      -21.147473814    23.857139306   -10.237952952
 H      -22.459103515    27.142877434    -7.703790456
 H      -20.423972498    26.909633410    -6.392911400
 H      -14.265138329    13.681546243    -0.662205945
 H      -13.394711327    14.126887222     0.825729715
 H      -13.100908145    15.876080840    -0.919371979
 H      -11.551997755    15.168412771    -0.483443396
 H      -11.876146499    13.552719146    -2.565437550
 H      -13.189451504    14.641798488    -3.055281785
 H        2.262416559    -1.029747760     0.046597536
 H        2.261215487     0.548373450     0.874066443
 H        2.275110368     0.473731466    -0.909081239
 H      -24.330669879    24.867142447   -12.280710122
 H      -23.308059709    23.640860840   -11.490677464
 H      -22.559069512    25.055502919   -12.280674899
 H      -25.891706727    25.113768794    -9.751774900
 C      -24.832916145    23.563594584    -8.657765264
 C      -25.295728189    25.869118737    -7.804782762
 H      -23.892145263    28.035439884    -9.431691794
 C      -22.606651309    28.175234939   -11.173630099
 C      -25.086987033    27.818237123   -11.229315760
 H      -12.837330887    25.550474518    -1.962065398
 C      -13.698582944    23.758674356    -1.082665564
 C      -11.279413783    24.399243356    -0.983010919
 H      -10.015030765    24.619330640    -3.817745879
 C      -10.627853175    24.217993733    -5.863112053
 C      -11.233262370    26.262967128    -4.548590797
 H       -4.256371321    14.246538748     1.405082363
 C       -4.124780862    12.472119834     2.655488179
 C       -2.193750364    13.575411823     1.509315105
 H       -2.387104990    13.468806878    -1.512503058
 C       -3.731728645    12.686151633    -3.026710181
 C       -4.076052529    14.814255772    -1.748216329
 H       -0.114494225    -1.935927857    -1.515624424
 C       -2.135201133    -1.142051612    -1.573421961
 C       -0.191858144    -0.226983280    -2.855323927
 H       -1.778260527    -0.912044470     1.443933554
 C       -0.183740885    -2.369544845     1.638055887
 C       -0.297535666    -0.177771702     2.849131459
 H      -24.696421525    22.886871514    -9.511028923
 H      -25.732769143    23.215257110    -8.130801559
 H      -23.991437391    23.403479654    -7.968283163
 H      -25.507849381    26.924578196    -8.017136898
 H      -24.482214297    25.829492084    -7.066704085
 H      -26.187861687    25.473874495    -7.297314570
 H      -21.653539221    28.060873511   -10.637476355
 H      -22.769121562    29.256960059   -11.283079975
 H      -22.464697922    27.779973000   -12.188173543
 H      -25.993120042    27.450412190   -10.730858213
 H      -25.069016115    27.397738409   -12.243506746
 H      -25.221718992    28.903108019   -11.349534407
 H      -14.665300232    23.810701766    -1.602363174
 H      -13.850556935    24.229256433    -0.101310811
 H      -13.487233928    22.697251692    -0.886728131
 H      -10.435778759    24.950214603    -1.417748784
 H      -10.945675945    23.369639901    -0.792061729
 H      -11.463642321    24.849562945     0.003028452
 H      -10.352412508    23.154461680    -5.873407107
 H       -9.776464312    24.761352603    -6.296743187
 H      -11.465133294    24.350864362    -6.563412688
 H      -11.370546405    26.742175312    -3.570919844
 H      -12.120123919    26.487257335    -5.158577067
 H      -10.392336705    26.783050234    -5.029827390
 H       -5.198669059    12.242753868     2.685887932
 H       -3.906539332    13.050969214     3.564004152
 H       -3.583860388    11.520234833     2.760151829
 H       -1.825867700    14.223342825     0.703651049
 H       -1.570477390    12.670083218     1.525251425
 H       -1.982873675    14.106668118     2.449068696
 H       -3.312947592    11.670501896    -3.066477212
 H       -3.242909006    13.250167615    -3.833927912
 H       -4.794108229    12.618320153    -3.297973675
 H       -3.869710018    15.411895587    -0.850933809
 H       -5.162482800    14.829751414    -1.916412197
 H       -3.626482979    15.359870198    -2.590253966
 H       -2.508531716    -1.711396104    -0.712854825
 H       -2.416637840    -1.718445093    -2.466826755
 H       -2.700498657    -0.200933171    -1.627095206
 H        0.894188184    -0.103799696    -2.955250338
 H       -0.651985769     0.764132909    -2.977759148
 H       -0.513714381    -0.824077035    -3.720599008
 H       -0.463915088    -2.975129049     0.766516827
 H       -0.645668913    -2.854868925     2.510197710
 H        0.901758657    -2.462555442     1.775102603
 H       -0.652962174     0.862307028     2.876537272
 H        0.781299747    -0.163853460     3.053249904
 H       -0.767430194    -0.685138207     3.703724478

