187   

Si        0.000000000     0.000000000     0.000000000
 C        1.865401824     0.000000000     0.000000000
 C       -0.683004948     1.708345782     0.000000000
 C        0.139548190     2.820517435    -0.203886493
 C       -0.395406878     4.108775896    -0.200684195
 C       -1.762098118     4.313226987     0.004335423
 C       -2.585187572     3.197398401     0.207146000
 C       -2.054705998     1.911049709     0.204858035
 C       -2.367624562     5.639392817     0.016380167
 C       -1.699689497     6.791354597    -0.163648605
 C       -2.322459679     8.110375329    -0.148396970
 C       -1.519050134     9.240330581    -0.348637527
 C       -2.074057480    10.517585194    -0.341534165
 C       -3.449022043    10.688584988    -0.142655895
 C       -4.253379955     9.562491902     0.061957579
 C       -3.691889543     8.287179192     0.067525039
Si       -4.204559031    12.364819743    -0.129200542
 C       -5.996911419    12.169503440    -0.416535833
 C       -6.990594693    12.703262518     0.304539001
 C       -8.407509463    12.495327154     0.003988315
 C       -9.373408820    13.097761516     0.819533754
 C      -10.726679147    12.928768002     0.573073428
 C      -11.166138762    12.049641291    -0.439632349
 C      -10.192045171    11.419118943    -1.241737184
 C       -8.842838266    11.663266413    -1.032619322
 N      -12.532196368    11.871543691    -0.696916267
 C      -13.513798523    12.130785681     0.368612197
 C      -12.903743380    10.737348947    -1.560207755
 C      -13.704745940    10.978137204     1.370682091
 C      -12.700898113    11.028069430     2.539663086
 N      -12.277023659     9.710010986     3.054157690
 C      -11.392351589     9.037142448     2.144977542
 C      -10.031186422     9.367598572     2.244316705
 C       -9.109762326     8.762732147     1.402629049
 C       -9.524343259     7.838357621     0.431480514
 C      -10.880455190     7.515724887     0.342725540
 C      -11.811241998     8.096326182     1.198731499
 C      -13.402786737     8.881217252     3.521702589
 C       -8.514494710     7.224146532    -0.436037544
 C       -8.800516908     6.331755972    -1.393330883
Si       -7.564158897     5.549598790    -2.489479077
 C       -6.121840929     6.642856984    -2.795619963
 C       -6.303987094     8.024481496    -2.936503002
 C       -5.211453314     8.855452739    -3.168736149
 C       -3.922191472     8.322463868    -3.299190241
 C       -3.746694319     6.942430265    -3.170404671
 C       -4.834677969     6.109416230    -2.916540793
 C       -2.807381364     9.229756491    -3.541791820
 C       -1.524336841     8.851041285    -3.664985043
 C       -0.415316715     9.766563429    -3.907745640
 C       -0.593519598    11.146379202    -4.036159962
 C        0.493844027    11.987620773    -4.267995672
 C        1.786296028    11.464240421    -4.373298208
 C        1.968850687    10.081396635    -4.239080924
 C        0.881281963     9.244534239    -4.004984596
Si        3.227116115    12.566775050    -4.679134943
 C        2.691274977    14.226463062    -5.340892806
 C        4.153899814    12.825006215    -3.036014943
 C        4.399842337    11.715286144    -5.912452948
 C       -6.997715552     3.922404190    -1.681504225
 C       -8.394826335     5.163065985    -4.155180917
 C       -3.837861408    13.185920606     1.543948180
 C       -3.476942649    13.427459919    -1.530288581
 C       -0.604729511    -0.924854898    -1.550627997
 C       -0.661887790    -0.900228223     1.541035009
 H        1.215926183     2.722061508    -0.367768330
 H        0.266298559     4.958295583    -0.359636684
 H       -3.653125713     3.335365030     0.369585587
 H       -2.744875001     1.079222177     0.371494083
 H       -3.448853348     5.646931236     0.187778023
 H       -0.620111738     6.793467355    -0.336660355
 H       -0.450665889     9.122956834    -0.521085315
 H       -1.399254593    11.362143738    -0.505207817
 H       -5.334136953     9.638310001     0.221817718
 H       -4.337827161     7.424652369     0.225533368
 H       -6.216528667    11.542564276    -1.299231358
 H       -6.817897233    13.338819387     1.181113148
 H       -9.060800939    13.737306493     1.645635188
 H      -11.444874844    13.474619273     1.178072278
 H      -10.481037618    10.733729889    -2.032058865
 H       -8.113482049    11.173611875    -1.681158008
 H      -13.999751692    10.646496904    -1.627161219
 H      -12.495878331     9.773169198    -1.208224722
 H      -12.532758359    10.928992262    -2.584328081
 H      -13.892409505     9.403794509     4.361652831
 H      -13.008369314     7.926673214     3.912155686
 H      -14.164232773     8.658339520     2.760704958
 H       -9.712043632    10.097115181     2.988288969
 H       -8.053332957     9.022518978     1.490365948
 H      -11.223227186     6.795000802    -0.399317171
 H      -12.857818435     7.817973838     1.123931334
 H       -7.493711676     7.579411052    -0.235766811
 H       -9.833401413     5.992774086    -1.566872570
 H       -7.290891643     8.490548789    -2.852472953
 H       -5.362593072     9.930255443    -3.252987686
 H       -2.752727658     6.505759648    -3.256483676
 H       -4.631841316     5.039309369    -2.816372478
 H       -3.085837744    10.286473506    -3.618001482
 H       -1.242982075     7.797352328    -3.582535457
 H       -1.589485812    11.579593276    -3.954587664
 H        0.291369313    13.057796036    -4.363010324
 H        2.956260924     9.617888437    -4.311603626
 H        1.041931331     8.173081103    -3.901514277
 H      -13.247602132    13.071738950     0.899078077
 H      -14.486014326    12.346906054    -0.137784066
 H      -14.736537273    11.000863146     1.765656592
 H      -13.614103552    10.009883496     0.840973972
 H      -11.775421279    11.573527256     2.241441086
 H      -13.133782432    11.592656647     3.394666342
 H        2.263156713    -1.029920059     0.036984782
 H        2.262192791     0.540370949     0.878638810
 H        2.273614141     0.482189054    -0.905460679
 H        3.563648659    14.865619597    -5.566032246
 H        2.057514882    14.770751020    -4.619264659
 H        2.114104805    14.110912929    -6.276377160
 H        4.988511521    13.548973223    -3.262764753
 C        3.259574000    13.449594747    -1.948975313
 C        4.779389101    11.534143023    -2.477560523
 H        4.722790276    10.752524796    -5.419288689
 C        3.701646533    11.354897058    -7.236271975
 C        5.666534335    12.533794422    -6.219939225
 H       -6.241543908     3.467925322    -2.385331989
 C       -6.312688281     4.154698591    -0.322567050
 C       -8.140187408     2.908044720    -1.496837967
 H       -9.257239971     4.474000834    -3.924244984
 C       -8.960103212     6.425814808    -4.830448469
 C       -7.458926777     4.443466517    -5.141577328
 H       -4.390614957    14.169187071     1.537906868
 C       -4.353248829    12.353324392     2.732544033
 C       -2.341876583    13.478855896     1.758445350
 H       -2.356561836    13.313005725    -1.457290373
 C       -3.918945604    12.949659138    -2.925427368
 C       -3.811613631    14.923881332    -1.395735573
 H       -0.093848554    -1.930587740    -1.522783806
 C       -2.124862579    -1.164573134    -1.578866632
 C       -0.194586598    -0.216683998    -2.855107890
 H       -1.786348357    -0.897136063     1.440729516
 C       -0.201467137    -2.365247561     1.642057666
 C       -0.304822643    -0.170243362     2.848531632
 H        2.836346966    14.420276426    -2.237456511
 H        3.846600527    13.630042240    -1.037043066
 H        2.425780083    12.795524995    -1.654632679
 H        5.503834921    11.071001089    -3.159392405
 H        4.028758277    10.774771396    -2.216251418
 H        5.328652419    11.753556862    -1.550373008
 H        2.812947983    10.722026896    -7.099827206
 H        4.386653962    10.787216585    -7.881988585
 H        3.393237780    12.237008386    -7.812965691
 H        6.257653324    12.772514731    -5.326369700
 H        5.451322934    13.476386223    -6.740462006
 H        6.330713265    11.961413969    -6.883825080
 H       -5.441804670     4.822610598    -0.385468513
 H       -5.950164723     3.199734624     0.083611334
 H       -6.994510427     4.570768307     0.433631260
 H       -8.634067181     2.630349704    -2.436508034
 H       -8.916016328     3.258061599    -0.801986845
 H       -7.747197243     1.973167821    -1.071311441
 H       -9.684063939     6.967753487    -4.206832130
 H       -9.490113881     6.153776672    -5.754088383
 H       -8.175811412     7.137905129    -5.126324443
 H       -7.085210204     3.482352830    -4.765596583
 H       -6.588063733     5.051725041    -5.426792548
 H       -7.994751865     4.220473203    -6.075418374
 H       -5.428767304    12.134572418     2.682290059
 H       -4.190995629    12.897639090     3.673125248
 H       -3.827763771    11.392878554     2.838186059
 H       -1.908493432    14.130415779     0.988970825
 H       -1.731589306    12.565252656     1.806786324
 H       -2.193961338    13.995570165     2.717572071
 H       -3.726945093    11.881598983    -3.102321000
 H       -3.370718588    13.499632080    -3.703401920
 H       -4.986403245    13.129863105    -3.115951332
 H       -3.446452218    15.371024347    -0.462539148
 H       -4.888935054    15.130157449    -1.462413109
 H       -3.339779144    15.489948921    -2.211584519
 H       -2.493623722    -1.729573973    -0.713495741
 H       -2.394474068    -1.754682478    -2.466927321
 H       -2.702304566    -0.231871650    -1.645583513
 H        0.889814839    -0.079256915    -2.954963290
 H       -0.666639733     0.769426901    -2.971842987
 H       -0.509686754    -0.813338257    -3.723066992
 H       -0.481584643    -2.970410476     0.770255323
 H       -0.669770867    -2.846359899     2.513106895
 H        0.882969390    -2.464257031     1.783494708
 H       -0.654691352     0.871874560     2.872677805
 H        0.773506384    -0.161936857     3.055330127
 H       -0.780090834    -0.673044750     3.702853482

