187   

Si        0.000000000     0.000000000     0.000000000
 C        1.865536792     0.000000000     0.000000000
 C       -0.686242760     1.707870482     0.000000000
 C        0.144512270     2.826410814    -0.116994850
 C       -0.393749517     4.113496023    -0.115066965
 C       -1.772496236     4.310773840    -0.005724459
 C       -2.604028450     3.188520563     0.110558542
 C       -2.069285214     1.903618254     0.117156090
 C       -2.382206893     5.636222080     0.000921883
 C       -1.705748322     6.793454903    -0.094965094
 C       -2.323050859     8.115748086    -0.087573809
 C       -1.501739992     9.245676415    -0.194726820
 C       -2.047783854    10.526982874    -0.191949617
 C       -3.431213868    10.708629200    -0.074887951
 C       -4.253684747     9.581234172     0.029862105
 C       -3.704676312     8.300099829     0.017812237
Si       -4.171939653    12.391914484    -0.069151455
 C       -5.736169779    12.457852069     0.876807026
 C       -6.015704457    11.673349887     1.926228922
 C       -7.268443834    11.727660271     2.682153375
 C       -7.440908518    10.850163158     3.764650775
 C       -8.605690743    10.860211896     4.512220227
 C       -9.631841644    11.782434739     4.215907682
 C       -9.464148843    12.658361251     3.131983153
 C       -8.302517396    12.611095579     2.368069440
 N      -10.800864045    11.750341120     5.010295612
 C      -10.578853638    11.847770587     6.471634256
 C      -11.939756592    12.554532709     4.538602282
 C       -9.421737145    12.757640342     6.914865675
 C       -9.599686830    14.216322819     6.457796222
 N       -8.361792486    15.009116551     6.556212895
 C       -7.818725968    15.207456813     7.837013771
 C       -8.656779825    15.223048778     8.972850125
 C       -8.123200573    15.418466591    10.236524867
 C       -6.753856601    15.658031785    10.418064697
 C       -5.930292930    15.676525811     9.288911689
 C       -6.444992346    15.464423676     8.017160880
 C       -7.410580802    14.721108562     5.467927630
 C       -6.245282056    15.857382090    11.775513580
 C       -4.959961344    16.093080955    12.072530798
Si       -4.329645053    16.341487033    13.770533755
 C       -5.598002649    17.096032618    14.869001454
 C       -6.521238966    18.005638679    14.340059954
 C       -7.489560385    18.587757322    15.156322995
 C       -7.549615912    18.285614712    16.519829664
 C       -6.619178167    17.381759080    17.048789909
 C       -5.653124132    16.794862225    16.234952724
 C       -8.545356680    18.870685978    17.411725600
 C       -9.490544064    19.747419484    17.032492182
 C      -10.486761039    20.333172751    17.923280496
 C      -10.551689363    20.029448809    19.285513394
 C      -11.521242697    20.613001814    20.101050577
 C      -12.453144568    21.509259482    19.568648985
 C      -12.390861055    21.814731969    18.202178479
 C      -11.418426353    21.235387364    17.392053946
Si      -13.738837921    22.287882429    20.631297905
 C      -13.862883956    21.441851766    22.289278890
 C      -13.305546864    24.120340070    20.910208373
 C      -15.405974673    22.192381468    19.717554918
 C       -3.768410614    14.662496737    14.467702245
 C       -2.825058694    17.502684265    13.688104059
 C       -2.953291830    13.638064798     0.694058840
 C       -4.535810018    12.907427486    -1.863228950
 C       -0.588853745    -0.935839981    -1.550373502
 C       -0.665018700    -0.894544947     1.542569008
 H        1.230176848     2.734636204    -0.209718733
 H        0.274775321     4.967840619    -0.203245595
 H       -3.680835691     3.320278938     0.198794901
 H       -2.766852677     1.067084059     0.217667766
 H       -3.472709011     5.636085892     0.092372739
 H       -0.615978414     6.796316155    -0.186765397
 H       -0.423782606     9.124283710    -0.281574716
 H       -1.357438270    11.370035743    -0.281720237
 H       -5.342719998     9.662382312     0.116530089
 H       -4.366446396     7.439211943     0.095521601
 H       -6.450366439    13.218205308     0.525872133
 H       -5.316052143    10.913931165     2.304048591
 H       -6.650229771    10.141218052     4.015342481
 H       -8.739525187    10.151623814     5.326430421
 H      -10.234731134    13.377941034     2.874259524
 H       -8.201005208    13.289855942     1.520200593
 H      -12.839687049    12.266119923     5.110706026
 H      -12.148004635    12.311190934     3.481090254
 H      -11.801072630    13.642753308     4.631408757
 H       -7.951122773    14.470759035     4.537525996
 H       -6.729107861    13.883330585     5.690802682
 H       -6.814337765    15.628226313     5.262277745
 H       -9.727082988    15.074805758     8.867879058
 H       -8.786550527    15.400309483    11.102434467
 H       -4.861160267    15.862930856     9.400967851
 H       -5.770552328    15.491497411     7.167237470
 H       -7.031069262    15.802502926    12.542719471
 H       -4.190700535    16.134827439    11.287088001
 H       -6.519607394    18.284066441    13.280359560
 H       -8.201140008    19.286260129    14.719794316
 H       -6.648308055    17.133406749    18.107789966
 H       -4.954005200    16.097361670    16.703925782
 H       -8.477022474    18.541434991    18.452610373
 H       -9.558238667    20.076741631    15.991345437
 H       -9.840980154    19.331317127    19.723884923
 H      -11.521084539    20.337193761    21.159184603
 H      -13.093527462    22.507548873    17.730609498
 H      -11.384894401    21.486231923    16.333483306
 H      -11.522275223    12.168772138     6.964274321
 H      -10.382334419    10.807697389     6.829775354
 H       -9.322737113    12.718001322     8.017665749
 H       -8.459598272    12.363748852     6.528380850
 H       -9.939532202    14.255013393     5.397023151
 H      -10.397131776    14.720386007     7.047526752
 H        2.262818289    -1.030378154     0.029286694
 H        2.264389377     0.533448175     0.881743295
 H        2.272630593     0.488231561    -0.902928087
 H      -14.669703201    21.882649484    22.901660661
 H      -12.924204250    21.528252347    22.864100072
 H      -14.087628047    20.366470018    22.169317494
 H      -14.092638811    24.515689467    21.615400112
 C      -11.930102607    24.305403807    21.577232314
 C      -13.347918383    24.967447396    19.625845142
 H      -15.265605545    22.768674731    18.756996740
 C      -15.793443298    20.749142268    19.347779987
 C      -16.568130415    22.841369298    20.490210443
 H       -3.339058298    14.873692147    15.489281492
 C       -4.940961183    13.679163556    14.634066153
 C       -2.671355575    13.991622292    13.621779149
 H       -2.074453216    16.994126294    13.016865585
 C       -3.175538265    18.866438128    13.066202227
 C       -2.163107006    17.732648814    15.057929422
 H       -2.036735560    13.624300166     0.036532117
 C       -3.496908623    15.077686294     0.721252005
 C       -2.527711835    13.237913111     2.118166985
 H       -4.968754926    13.947679162    -1.808690927
 C       -3.275573522    12.959417824    -2.744215531
 C       -5.576033484    11.990535445    -2.531363237
 H       -0.048602176    -1.926515238    -1.526074608
 C       -2.100704704    -1.221842113    -1.576542480
 C       -0.202509498    -0.213348062    -2.854211255
 H       -1.789732746    -0.881744543     1.444376325
 C       -0.215880795    -2.362991866     1.643277088
 C       -0.299767895    -0.167148771     2.849346358
 H      -11.841511520    23.794942109    22.544803532
 H      -11.747521949    25.371464877    21.774773384
 H      -11.099116216    23.963468954    20.943431197
 H      -14.325048385    24.955056676    19.126813515
 H      -12.588890364    24.665389549    18.890458458
 H      -13.139591942    26.020731268    19.864457591
 H      -15.031733070    20.237128270    18.742384039
 H      -16.714267544    20.747901290    18.747359435
 H      -15.995746616    20.120417009    20.224958343
 H      -16.393709103    23.897771485    20.731984610
 H      -16.804692413    22.318534088    21.426358408
 H      -17.484511340    22.812672863    19.882856225
 H       -5.745835260    14.062939903    15.276168823
 H       -4.590664187    12.748502792    15.101809294
 H       -5.394613983    13.390606748    13.674598253
 H       -1.763266077    14.599904770    13.523881950
 H       -3.011828387    13.731020832    12.609756134
 H       -2.358916404    13.048145173    14.092163189
 H       -3.602237752    18.788872609    12.056758014
 H       -2.269914837    19.482109517    12.971848561
 H       -3.878966913    19.447538832    13.679944008
 H       -1.797306885    16.809754129    15.525598636
 H       -2.829016105    18.231209896    15.776883301
 H       -1.287375269    18.388440147    14.947204815
 H       -3.753317442    15.465715687    -0.272752708
 H       -2.735117578    15.758684361     1.127847210
 H       -4.381563523    15.188501921     1.363965416
 H       -2.072028044    12.239264663     2.172893919
 H       -3.360937758    13.260296363     2.835526446
 H       -1.773410555    13.940971194     2.498605048
 H       -2.519950747    13.668721995    -2.383291788
 H       -3.540501065    13.284934554    -3.760774854
 H       -2.789664245    11.979207069    -2.854906082
 H       -6.531346605    11.946462732    -1.990841980
 H       -5.218115379    10.958192075    -2.656366311
 H       -5.809650661    12.357865999    -3.540789864
 H       -2.454271026    -1.786176037    -0.704509103
 H       -2.350986050    -1.831362541    -2.457287547
 H       -2.705935247    -0.308268002    -1.656998449
 H        0.877015461    -0.043191380    -2.956470488
 H       -0.703792917     0.758647236    -2.968300570
 H       -0.501584806    -0.817522171    -3.722672692
 H       -0.503749446    -2.966811555     0.773003840
 H       -0.684966747    -2.839682981     2.516365876
 H        0.868183665    -2.470664053     1.781067899
 H       -0.642572269     0.877189083     2.874648136
 H        0.778946368    -0.166633377     3.054031834
 H       -0.776790409    -0.666867837     3.704551326

