187   

Si        0.000000000     0.000000000     0.000000000
 C        1.865140109     0.000000000     0.000000000
 C       -0.678763780     1.711218779     0.000000000
 C        0.123830670     2.805390570    -0.338260212
 C       -0.400497420     4.097861448    -0.335069964
 C       -1.737431022     4.325769972     0.001260100
 C       -2.541425755     3.227884126     0.335950131
 C       -2.021045460     1.936741746     0.333983072
 C       -2.329141706     5.659443925     0.018222432
 C       -1.671434018     6.792632327    -0.280467021
 C       -2.264062681     8.125936765    -0.263217480
 C       -3.601407250     8.351819197     0.073440230
 C       -4.127140969     9.643482716     0.077096102
 C       -3.328989913    10.737342068    -0.271047778
 C       -1.988137552    10.513299707    -0.611770540
 C       -1.462872242     9.224212969    -0.602986020
Si       -3.989001624    12.453670913    -0.277085437
 C       -3.234072883    13.457818112    -1.605761074
 C       -2.804698409    12.943295024    -2.766074208
 C       -2.197895356    13.727116206    -3.842732513
 C       -1.790026364    13.064153541    -5.009857703
 C       -1.210238222    13.757947444    -6.059130327
 C       -1.049385017    15.155894989    -5.980992630
 C       -1.446062589    15.820669825    -4.810770636
 C       -1.988397653    15.104658097    -3.749386781
 N       -0.450247431    15.818333111    -7.081979714
 C       -1.095624280    15.589002796    -8.390638555
 C       -0.087649631    17.229554640    -6.866840315
 C       -2.501783297    16.202187265    -8.533744435
 C       -3.616072483    15.170288001    -8.269083532
 N       -4.902877448    15.738259660    -7.808360508
 C       -4.840447310    16.120606708    -6.423451463
 C       -5.228650362    15.136042894    -5.501651108
 C       -5.200696310    15.415043133    -4.143755039
 C       -4.773075912    16.667478824    -3.676983596
 C       -4.399388615    17.643357627    -4.604319415
 C       -4.448137423    17.383953606    -5.970600767
 C       -5.424972554    16.794874167    -8.693251236
 C       -4.762415119    16.911600694    -2.231767992
 C       -4.375807795    18.064392022    -1.671881515
Si       -4.340125058    18.429017770     0.118598523
 C       -5.187875202    20.021670011     0.459217347
 C       -6.163668612    20.499705536    -0.424210064
 C       -6.810736264    21.706735462    -0.172321799
 C       -6.508016504    22.457644746     0.971242865
 C       -5.538247290    21.973538602     1.854076250
 C       -4.884769364    20.767817739     1.602659848
 C       -7.213265386    23.716120325     1.191046424
 C       -7.015088627    24.531471242     2.240763390
 C       -7.720683592    25.789808623     2.459956226
 C       -8.690004423    26.274025147     1.577848798
 C       -9.340383636    27.482683129     1.826279573
 C       -9.028863735    28.238082596     2.961140143
 C       -8.056004253    27.755010507     3.846965696
 C       -7.413117415    26.545372839     3.599527408
Si       -9.878010733    29.835086426     3.303310455
 C      -10.828907574    30.438786609     1.816402451
 C      -11.090434113    29.610507999     4.753431726
 C       -8.562363987    31.115123830     3.807734598
 C       -5.222251909    17.060490373     1.102888643
 C       -2.518198683    18.485464388     0.659689731
 C       -5.873788591    12.402417208    -0.544728869
 C       -3.621972768    13.301079496     1.384044021
 C       -0.617703005    -0.919462074    -1.547969265
 C       -0.653983296    -0.907823024     1.540350434
 H        1.177129508     2.689976836    -0.608588869
 H        0.245920965     4.932487347    -0.600448044
 H       -3.585674433     3.383298999     0.600549659
 H       -2.696622437     1.120055179     0.603474664
 H       -3.385720398     5.687247913     0.300512439
 H       -0.614829718     6.765265906    -0.562786217
 H       -4.246062349     7.516463487     0.340243123
 H       -5.177865635     9.756881704     0.357169422
 H       -1.316313767    11.332106131    -0.892549441
 H       -0.418106868     9.070401312    -0.866993088
 H       -3.162509393    14.536356136    -1.395297737
 H       -2.872696761    11.871212405    -3.001300568
 H       -1.925514634    11.985373326    -5.093351634
 H       -0.869472512    13.223058345    -6.941904866
 H       -1.348676856    16.898240685    -4.721792530
 H       -2.283246746    15.643735423    -2.845777758
 H        0.502287501    17.584825693    -7.728972617
 H        0.563393814    17.303504405    -5.976917055
 H       -0.947842940    17.904352838    -6.732543373
 H       -5.578493993    16.365325940    -9.697898115
 H       -4.783713734    17.682878616    -8.788589130
 H       -6.411657176    17.117302175    -8.316268245
 H       -5.546007494    14.159736480    -5.866541706
 H       -5.499009052    14.642075781    -3.433344285
 H       -4.073361826    18.626158226    -4.263627260
 H       -4.173567235    18.161377072    -6.676922364
 H       -5.114224375    16.051512018    -1.645633884
 H       -4.024722101    18.907605148    -2.290949334
 H       -6.442750813    19.953079126    -1.331183432
 H       -7.562251380    22.066640605    -0.872637957
 H       -5.284559868    22.538027689     2.749488961
 H       -4.134420303    20.440902328     2.327677588
 H       -7.945597824    23.970452630     0.419018920
 H       -6.282986626    24.277053515     3.012751606
 H       -8.947564670    25.707571623     0.684767267
 H      -10.090930645    27.808624838     1.100893172
 H       -7.770847814    28.302901665     4.749626748
 H       -6.661873711    26.185719397     4.300098016
 H       -0.418603855    16.009550980    -9.169403526
 H       -1.124096312    14.493187180    -8.581398300
 H       -2.607593388    17.053169586    -7.833511776
 H       -2.623645091    16.631345909    -9.543741023
 H       -3.829456431    14.589557846    -9.193413831
 H       -3.281539444    14.431766091    -7.501795606
 H        2.263064781    -1.029287222     0.050937382
 H        2.260732205     0.552238189     0.871928082
 H        2.275332031     0.470050409    -0.910912430
 H      -11.300718408    31.417492639     2.016198213
 H      -11.630681580    29.735766135     1.530286122
 H      -10.162423910    30.564104828     0.943738494
 H      -11.611782747    30.604365118     4.870964787
 C      -12.160322044    28.540952699     4.467006156
 C      -10.401962552    29.273490011     6.088123605
 H       -8.071614356    30.704317674     4.737714014
 C       -7.470117170    31.290664066     2.737297735
 C       -9.150029118    32.494330708     4.155808539
 H       -4.814629896    16.083613986     0.708604501
 C       -4.946717982    17.113527887     2.615160817
 C       -6.744562296    17.073582102     0.874493670
 H       -2.527721143    18.680282887     1.770733484
 C       -1.779760739    17.157407217     0.413094872
 C       -1.737660204    19.626948865    -0.015574315
 H       -6.281439977    11.752759457     0.282854473
 C       -6.559775130    13.774612400    -0.442794870
 C       -6.248711484    11.758319406    -1.891617605
 H       -4.041045630    14.347650815     1.302090708
 C       -4.300713349    12.612136169     2.579905027
 C       -2.112365151    13.415695993     1.660578108
 H       -0.129788192    -1.936243341    -1.514540191
 C       -2.143089225    -1.123189522    -1.573504013
 C       -0.190531077    -0.227721658    -2.855535183
 H       -1.778523073    -0.913663803     1.441973698
 C       -0.182995932    -2.369862586     1.637174358
 C       -0.299407137    -0.178725309     2.848963741
 H      -12.756732511    28.749094876     3.569424165
 H      -12.872631105    28.487129294     5.302809333
 H      -11.737076375    27.531909068     4.358502299
 H       -9.676390320    30.031701340     6.408695041
 H       -9.889505204    28.301284422     6.070026097
 H      -11.151447879    29.208565965     6.890494191
 H       -6.963974520    30.350326031     2.475711559
 H       -6.686832176    31.968670268     3.105272816
 H       -7.848547635    31.732295665     1.805918596
 H       -9.890686033    32.459954015     4.965203605
 H       -9.618022864    32.990032281     3.294985420
 H       -8.350500858    33.166759443     4.499671386
 H       -3.884323383    17.005403859     2.868824354
 H       -5.466752747    16.287167891     3.121720256
 H       -5.312442140    18.036509216     3.086063337
 H       -7.029675511    16.956260568    -0.180207320
 H       -7.224829060    17.991506808     1.243550943
 H       -7.218230459    16.244953764     1.419716469
 H       -2.236301059    16.301488940     0.929581463
 H       -0.748300000    17.225939602     0.786855146
 H       -1.702418841    16.901749804    -0.653665020
 H       -2.185572600    20.617445689     0.144868276
 H       -1.623621641    19.485532755    -1.099345802
 H       -0.719954256    19.683093527     0.396338464
 H       -6.386733987    14.277338100     0.518102538
 H       -7.649394375    13.657946162    -0.533922861
 H       -6.259326571    14.464424267    -1.244277261
 H       -5.865684811    10.735122770    -2.008030639
 H       -5.899369311    12.339662467    -2.757626867
 H       -7.341293441    11.687674635    -1.986366980
 H       -5.394818360    12.579079033     2.500517965
 H       -4.076705045    13.159045578     3.507238977
 H       -3.946865553    11.583765092     2.740397208
 H       -1.560568386    13.939456725     0.867476647
 H       -1.630479080    12.438375736     1.807321216
 H       -1.939876888    13.982744317     2.586237583
 H       -2.520920506    -1.694634075    -0.716286476
 H       -2.430961783    -1.690893026    -2.470398589
 H       -2.699643776    -0.176406979    -1.620082701
 H        0.896692397    -0.115268374    -2.955171758
 H       -0.641055708     0.767737374    -2.978664799
 H       -0.517950731    -0.822132128    -3.720564123
 H       -0.462065665    -2.975425166     0.765267114
 H       -0.645155872    -2.855821901     2.508821415
 H        0.902495328    -2.461994031     1.774963834
 H       -0.654501156     0.861474936     2.876238143
 H        0.779273011    -0.165016134     3.054150179
 H       -0.770204218    -0.686191761     3.702969140

