187   

Si        0.000000000     0.000000000     0.000000000
 C        1.865360299     0.000000000     0.000000000
 C       -0.671628249     1.714117256     0.000000000
 C        0.124753602     2.795833458     0.389898306
 C       -0.389247940     4.092239190     0.387967794
 C       -1.710252136     4.336978657     0.003565677
 C       -2.508448395     3.251534311    -0.381494809
 C       -1.997972121     1.956177622    -0.381710046
 C       -2.289197300     5.676366878    -0.013458719
 C       -1.631686429     6.796772422     0.330556660
 C       -2.206737354     8.137697584     0.314943046
 C       -3.527771363     8.386966986    -0.068911639
 C       -4.036147912     9.684861480    -0.068894242
 C       -3.228997909    10.763420386     0.310287994
 C       -1.905873174    10.517757828     0.695886843
 C       -1.403607965     9.218660038     0.700953944
Si       -3.902618963    12.472378710     0.309005425
 C       -2.541502114    13.694335775     0.342909765
 C       -2.434420185    14.733205587     1.180568322
 C       -1.320209094    15.686213840     1.166440231
 C       -1.319223811    16.737694388     2.096988866
 C       -0.287710072    17.663555946     2.122514040
 C        0.767693691    17.558202371     1.202508161
 C        0.779830252    16.511780702     0.275577826
 C       -0.254357068    15.579864220     0.269556334
 N        1.789885866    18.563129900     1.306386669
 C        1.486669254    19.740658924     0.461892325
 C        3.155193790    18.042153756     1.115201448
 C        1.755923375    19.552023435    -1.043837612
 C        1.024190607    20.606824879    -1.896481955
 N       -0.233245954    20.149947134    -2.527915908
 C       -1.248313181    19.829758282    -1.572531883
 C       -1.902359239    20.911761163    -0.958799915
 C       -2.898046512    20.678525055    -0.021772938
 C       -3.251669328    19.371076485     0.340788114
 C       -2.609024048    18.303459592    -0.290970307
 C       -1.637428843    18.522275575    -1.260546373
 C       -0.014049814    19.119419400    -3.558961597
 C       -4.309071437    19.166190402     1.334853362
 C       -4.714570002    17.957343937     1.743541389
Si       -6.019250251    17.602981535     2.972542276
 C       -7.151063548    16.365967685     2.216951916
 C       -7.395150803    16.409646732     0.838486966
 C       -8.248447494    15.483004355     0.245469346
 C       -8.875513851    14.492489754     1.012416435
 C       -8.631854678    14.454249167     2.388331813
 C       -7.781513976    15.383368550     2.986448166
 C       -9.760459773    13.545268629     0.343819282
 C      -10.425141371    12.553214945     0.959934336
 C      -11.309908731    11.606668875     0.289543438
 C      -11.552073325    11.646685083    -1.085943650
 C      -12.405732580    10.721886953    -1.686802876
 C      -13.028255283     9.728356479    -0.924687580
 C      -12.784883148     9.684651980     0.454867352
 C      -11.938712475    10.614152663     1.053154071
Si      -14.157688651     8.500423590    -1.703183065
 C      -13.997467035     8.502038208    -3.561500223
 C      -13.737750383     6.777736714    -1.010465633
 C      -15.956950774     8.915297825    -1.241291632
 C       -5.227369603    16.949545158     4.572129766
 C       -7.013848247    19.165320521     3.401361488
 C       -4.891332313    12.776369869    -1.289251692
 C       -5.078439289    12.689724611     1.785748168
 C       -0.653198706    -0.908544892    -1.540262004
 C       -0.624037069    -0.915554928     1.547337608
 H        1.165356996     2.667651405     0.700561309
 H        0.252648109     4.917049887     0.692253901
 H       -3.540353227     3.419779251    -0.683843496
 H       -2.668298112     1.149560028    -0.691091000
 H       -3.333559656     5.720046958    -0.335538259
 H       -0.587094558     6.751727365     0.652984525
 H       -4.172733775     7.564184966    -0.371334885
 H       -5.077516479     9.818813948    -0.376854055
 H       -1.232806254    11.323448638     1.005782090
 H       -0.373788324     9.045006522     1.007157624
 H       -1.778675017    13.509629868    -0.432821868
 H       -3.180120781    14.945728918     1.958708288
 H       -2.138793278    16.835214127     2.810766413
 H       -0.285163168    18.478836237     2.845261579
 H        1.596840227    16.414988229    -0.433060867
 H       -0.226260566    14.763593535    -0.452451334
 H        3.872601382    18.841025419     1.370002258
 H        3.379738020    17.682268607     0.100872986
 H        3.319932606    17.210799304     1.823191160
 H        0.604903937    19.556450344    -4.361631958
 H       -0.984772496    18.843587042    -4.007341426
 H        0.478637462    18.202606258    -3.201170264
 H       -1.627966762    21.927927988    -1.234525729
 H       -3.405608668    21.524498402     0.439874091
 H       -2.882966661    17.274088608    -0.044014967
 H       -1.158915914    17.670611135    -1.737063883
 H       -4.735432939    20.101371656     1.716617322
 H       -4.252706597    17.039140866     1.334774937
 H       -6.928047163    17.159251243     0.189789890
 H       -8.430970557    15.532626149    -0.826648876
 H       -9.109827163    13.697231233     3.006892592
 H       -7.632410332    15.307338433     4.066809767
 H       -9.857584934    13.693644290    -0.735779544
 H      -10.330212928    12.404930324     2.039611758
 H      -11.075411424    12.406336312    -1.703049134
 H      -12.558461174    10.805027266    -2.766474758
 H      -13.243370825     8.930267931     1.100596894
 H      -11.763546473    10.564954076     2.126304736
 H        0.416391178    20.010211143     0.626025898
 H        2.090695172    20.587370946     0.856726417
 H        2.841490916    19.599880370    -1.239402527
 H        1.440380813    18.535955372    -1.350300918
 H        0.786996671    21.507427458    -1.286449231
 H        1.690579951    20.960837333    -2.715396638
 H        2.263570274    -1.029055111    -0.052209430
 H        2.276129294     0.469352032     0.910920230
 H        2.259704169     0.553382039    -0.871751127
 H      -14.646739569     7.733334151    -4.017537168
 H      -12.958761918     8.283786693    -3.869573053
 H      -14.280603392     9.476439422    -3.996630294
 H      -13.906912732     6.842425320     0.103801705
 C      -14.640281702     5.658648473    -1.559423115
 C      -12.265078278     6.393259081    -1.241418560
 H      -16.593603162     8.160502619    -1.787328901
 C      -16.251987301     8.787454254     0.263861404
 C      -16.376676115    10.321079993    -1.708368982
 H       -6.080424156    16.816705327     5.299607792
 C       -4.532010356    15.588418872     4.407840830
 C       -4.228157012    17.945388889     5.189226736
 H       -6.260235364    19.927745879     3.753720563
 C       -7.750597324    19.748166550     2.181578106
 C       -8.033036118    18.944121605     4.533011301
 H       -5.796305498    12.105071733    -1.226555120
 C       -5.379391016    14.229373346    -1.414630645
 C       -4.105550145    12.397870375    -2.556951733
 H       -5.331852737    13.790694095     1.825747828
 C       -6.398059302    11.912975733     1.639100507
 C       -4.416509245    12.293159689     3.117950402
 H       -1.777956909    -0.912648427    -1.443783925
 C       -0.295424216    -0.181793588    -2.849327503
 C       -0.184445203    -2.371494444    -1.634800741
 H       -0.144434765    -1.936258442     1.514178023
 C       -0.193040626    -0.227549980     2.855536783
 C       -2.151327287    -1.106399240     1.570220101
 H      -15.708004813     5.828165580    -1.369229714
 H      -14.390221424     4.703426144    -1.074980031
 H      -14.514188583     5.497007559    -2.638206105
 H      -11.555715292     7.121912321    -0.823555217
 H      -12.017023414     6.261605463    -2.302966605
 H      -12.044317552     5.434324449    -0.751101939
 H      -16.054125849     7.784959825     0.663872986
 H      -17.316172407     8.988689882     0.455768426
 H      -15.690209864     9.510898770     0.871563113
 H      -16.274108155    10.470331521    -2.790918438
 H      -15.815621897    11.122965439    -1.207129740
 H      -17.436777109    10.494938026    -1.473876571
 H       -5.176199143    14.817484167     3.960961432
 H       -4.226173174    15.199888840     5.389808787
 H       -3.614865613    15.647421202     3.804656275
 H       -4.678811830    18.912579524     5.445622407
 H       -3.362447018    18.144650708     4.540919641
 H       -3.823365245    17.540048950     6.127639334
 H       -7.088934770    19.974965299     1.334414338
 H       -8.239564156    20.694498849     2.452811099
 H       -8.546835070    19.087207070     1.809730126
 H       -7.573471852    18.634370301     5.480122409
 H       -8.805163665    18.204978074     4.276720964
 H       -8.567916523    19.881434464     4.745783034
 H       -5.991513413    14.557266554    -0.561064596
 H       -6.012400188    14.338498470    -2.305912090
 H       -4.556960845    14.949849502    -1.528729026
 H       -3.754596513    11.356474445    -2.557783343
 H       -3.233087182    13.042270440    -2.729258200
 H       -4.747542715    12.504624647    -3.442789042
 H       -6.991664001    12.224456488     0.767906310
 H       -7.039698179    12.098610938     2.513576722
 H       -6.259369557    10.825474278     1.585049779
 H       -3.501913541    12.860072330     3.338641936
 H       -4.160251574    11.224842970     3.165323933
 H       -5.107906466    12.475720071     3.952788825
 H       -0.648060739     0.859215918    -2.878096417
 H       -0.766091776    -0.689125540    -3.703400219
 H        0.783555143    -0.170648089    -3.052927928
 H       -0.468865213    -2.976418499    -0.764180249
 H        0.901499335    -2.465717254    -1.767345015
 H       -0.643235441    -2.856561288    -2.508672004
 H        0.894960796    -0.124835994     2.956909136
 H       -0.527327462    -0.819029531     3.719965540
 H       -0.634998498     0.771903645     2.977757628
 H       -2.531936122    -1.676369519     0.713278321
 H       -2.699944441    -0.154739835     1.613016248
 H       -2.446012637    -1.669718325     2.467607512

