187   

Si        0.000000000     0.000000000     0.000000000
 C        1.865448918     0.000000000     0.000000000
 C       -0.675359025     1.712547505     0.000000000
 C        0.139194802     2.808397949     0.302404532
 C       -0.382057281     4.102052466     0.299715154
 C       -1.728514769     4.329415792     0.003373136
 C       -2.544444096     3.229956908    -0.295180440
 C       -2.026278727     1.937826312    -0.296977647
 C       -2.316291340     5.665003697    -0.011104840
 C       -1.644193441     6.798540384     0.252696651
 C       -2.229012839     8.135279172     0.239022867
 C       -3.575537401     8.366067609    -0.057016690
 C       -4.092552203     9.660879569    -0.058599440
 C       -3.267764712    10.754934014     0.223861664
 C       -1.917802204    10.527873808     0.519499438
 C       -1.407727358     9.232130455     0.531255232
Si       -3.936532664    12.468595262     0.225251800
 C       -2.577085693    13.657690733    -0.053460705
 C       -2.320066536    14.745352797     0.684545909
 C       -1.216955859    15.671561788     0.422949305
 C       -1.045751247    16.779351692     1.265779076
 C       -0.018049083    17.685052082     1.061292709
 C        0.915757626    17.484213306     0.020944847
 C        0.745241755    16.371854136    -0.824919301
 C       -0.318376997    15.499071177    -0.632970336
 N        1.952525939    18.411471793    -0.174020238
 C        2.491016080    19.093537701     1.016150136
 C        2.964386121    18.084440975    -1.189095617
 C        3.016397665    18.162565602     2.122340208
 C        4.446885246    17.650990848     1.880652014
 N        5.520562036    18.587502456     2.258188135
 C        5.527255174    19.067972972     3.578292792
 C        5.085568171    18.233004106     4.628110178
 C        5.085544368    18.690684628     5.935358091
 C        5.565453458    19.968250503     6.258297091
 C        6.030331330    20.781528490     5.221651592
 C        6.021643175    20.345565949     3.902720576
 C        5.893975118    19.533856689     1.196969499
 C        5.542299471    20.401634193     7.656442063
 C        5.974099489    21.597202841     8.078589475
Si        5.969053352    22.190218355     9.807142010
 C        5.196697308    23.857889321     9.886515999
 C        4.321221534    24.276376634     8.878874440
 C        3.732484596    25.539171769     8.933109799
 C        3.996253064    26.405232036     9.997974641
 C        4.868641965    25.980570978    11.009075220
 C        5.461840931    24.721920296    10.956189143
 C        3.402970260    27.734757550    10.095972376
 C        2.553865240    28.261475880     9.197453591
 C        1.960175621    29.590838611     9.294707461
 C        2.226015525    30.459599152    10.356301748
 C        1.636239139    31.722446324    10.409318418
 C        0.760401369    32.141422393     9.402933245
 C        0.491459388    31.271583271     8.337506532
 C        1.086381502    30.014166269     8.284152861
Si       -0.025605014    33.805137334     9.459205341
 C        0.146969111    34.588549117    11.143283624
 C        0.798366911    34.935981866     8.168599454
 C       -1.865217954    33.615136530     9.008297344
 C        5.004383475    21.007082118    10.941095676
 C        7.767986847    22.290392664    10.419166918
 C       -5.206387458    12.660709177    -1.178894334
 C       -4.809979798    12.791351279     1.883188164
 C       -0.656304419    -0.903711337    -1.541497177
 C       -0.614921839    -0.922078215     1.547310435
 H        1.199576648     2.693624441     0.543679576
 H        0.274438486     4.938141489     0.533949293
 H       -3.596004494     3.384838524    -0.529094933
 H       -2.710502393     1.119880934    -0.539429230
 H       -3.381128080     5.693824860    -0.259441206
 H       -0.579128837     6.768400380     0.501377820
 H       -4.234548928     7.531267717    -0.287511693
 H       -5.154112667     9.779300211    -0.292169044
 H       -1.228848830    11.347303420     0.749671219
 H       -0.357287656     9.073218427     0.767575565
 H       -1.955672932    13.406377450    -0.929370632
 H       -2.923748440    15.028350854     1.556794944
 H       -1.740108625    16.940998984     2.091275091
 H        0.063945615    18.552197864     1.710617402
 H        1.433948467    16.182251109    -1.641305859
 H       -0.436664939    14.654574131    -1.314317520
 H        3.715515675    18.889249892    -1.249162321
 H        2.475065180    18.032715719    -2.180366261
 H        3.485022901    17.130504469    -1.003812455
 H        5.857439945    19.035323105     0.214324406
 H        6.942560512    19.851928791     1.352388637
 H        5.256079682    20.432181222     1.159558574
 H        4.739058360    17.225313891     4.416636686
 H        4.718822466    18.036398712     6.727253137
 H        6.410501371    21.780345229     5.443939032
 H        6.391064019    21.012117340     3.130681887
 H        5.129505464    19.644557089     8.336006230
 H        6.392325562    22.331897898     7.370120290
 H        4.073937171    23.639036669     8.023484930
 H        3.058894834    25.844845912     8.134674434
 H        5.087073708    26.639972198    11.846789490
 H        6.134812431    24.445116602    11.772244821
 H        3.700979829    28.304697780    10.980916506
 H        2.255649740    27.691219039     8.312789465
 H        2.900484662    30.155795482    11.154779128
 H        1.883708225    32.357946474    11.264163268
 H       -0.185421818    31.544668133     7.523032289
 H        0.866416742    29.353312473     7.447892447
 H        3.285570977    19.800427689     0.691658403
 H        1.676908086    19.738885969     1.426845910
 H        2.968790632    18.691734734     3.096379562
 H        2.334056567    17.295007565     2.235324946
 H        4.608788699    16.709188070     2.459212893
 H        4.582887690    17.364378503     0.815057587
 H        2.263333883    -1.029860409    -0.037539426
 H        2.275415401     0.481759014     0.904869388
 H        2.260902802     0.540633179    -0.879112808
 H       -0.361027934    35.568788932    11.180229369
 H        1.205036326    34.752195427    11.412771936
 H       -0.305645768    33.950823398    11.924298720
 H        0.309606142    35.945572136     8.291119665
 C        2.309534891    35.104572124     8.410945162
 C        0.580349736    34.474626821     6.716485008
 H       -1.884977521    33.189844005     7.962755697
 C       -2.599559654    32.626722388     9.932148963
 C       -2.633458417    34.948581938     8.988510916
 H        5.455074754    19.985225858    10.778988757
 C        5.134463624    21.352616338    12.435340144
 C        3.509445276    20.936093036    10.579291049
 H        7.712823119    22.632268863    11.493094212
 C        8.489944481    20.931898411    10.388478486
 C        8.600960092    23.320058154     9.635059062
 H       -6.036772389    11.932067453    -0.949136385
 C       -5.816700159    14.071471047    -1.248748208
 C       -4.623119946    12.296981217    -2.555971443
 H       -5.110621953    13.879022708     1.868938731
 C       -6.083492313    11.948597495     2.075473343
 C       -3.881150477    12.564917688     3.090200127
 H       -1.780831438    -0.908064257    -1.442382529
 C       -0.302298492    -0.171983183    -2.848882292
 C       -0.187008610    -2.365988047    -1.642318331
 H       -0.126061396    -1.938437749     1.511260186
 C       -0.186131563    -0.232081884     2.855288219
 C       -2.139998250    -1.128318570     1.575932264
 H        2.549975265    35.512845636     9.400997826
 H        2.732589483    35.806840890     7.678340363
 H        2.868119489    34.164723781     8.293717152
 H       -0.477831098    34.417760598     6.431673808
 H        1.040346983    33.499023239     6.504854864
 H        1.046273642    35.188747880     6.021779352
 H       -2.137420030    31.629337363     9.955597839
 H       -3.631139768    32.478641379     9.582256470
 H       -2.672865568    32.981373644    10.968787813
 H       -2.209367417    35.684458684     8.293158017
 H       -2.697426135    35.420942489     9.977729472
 H       -3.669909413    34.779446896     8.661875888
 H        6.168528735    21.321692831    12.801453500
 H        4.574394132    20.623732747    13.039153711
 H        4.717843132    22.338677096    12.684907635
 H        3.322436501    20.655751585     9.533768107
 H        2.981787557    21.883144563    10.763748686
 H        3.006897346    20.178721366    11.197050355
 H        7.997841013    20.163003713    10.997822976
 H        9.507969376    21.037327134    10.789892809
 H        8.600862617    20.529262060     9.371299649
 H        8.167183208    24.329912089     9.644864815
 H        8.755670475    23.035216122     8.585296255
 H        9.601979075    23.412032717    10.080039350
 H       -6.330548871    14.370069726    -0.325979783
 H       -6.569757270    14.116841202    -2.048360140
 H       -5.073871914    14.848004424    -1.481876389
 H       -4.202316713    11.282418569    -2.596967906
 H       -3.841602575    12.994381807    -2.887556524
 H       -5.412194774    12.332645394    -3.320491209
 H       -6.846689432    12.130878851     1.308311459
 H       -6.553960095    12.193649205     3.038874411
 H       -5.882617519    10.868212441     2.100824969
 H       -2.960250850    13.162763532     3.055170903
 H       -3.584395281    11.512451141     3.206792741
 H       -4.395914394    12.844078560     4.020227154
 H       -0.656151017     0.868719673    -2.873056748
 H       -0.774954337    -0.676630806    -3.703496473
 H        0.776065475    -0.159226765    -3.055455443
 H       -0.467966937    -2.973968796    -0.772698088
 H        0.898532362    -2.459035077    -1.778999337
 H       -0.648555623    -2.848513936    -2.516175805
 H        0.901144662    -0.118316356     2.952971712
 H       -0.511198576    -0.828526055     3.719828879
 H       -0.637571659     0.762646607     2.980971192
 H       -2.519451363    -1.694797123     0.716203771
 H       -2.697697744    -0.182708924     1.630444238
 H       -2.424212513    -1.702294621     2.470031655

