187   

Si        0.000000000     0.000000000     0.000000000
 C        1.865428478     0.000000000     0.000000000
 C       -0.674645302     1.712896856     0.000000000
 C        0.144869290     2.811501540    -0.277506092
 C       -0.377195702     4.104888005    -0.274702922
 C       -1.729185067     4.329334908    -0.002525997
 C       -2.550039541     3.227132987     0.271835620
 C       -2.031141545     1.935361297     0.273590064
 C       -2.318215199     5.664295805     0.011176359
 C       -1.642552265     6.800522072    -0.230675230
 C       -2.230210210     8.135973923    -0.217310047
 C       -1.406713369     9.236662908    -0.487990869
 C       -1.922541135    10.530292300    -0.486551724
 C       -3.274964040    10.754717747    -0.201755152
 C       -4.099235424     9.656568212     0.069045296
 C       -3.582327819     8.362015720     0.055357692
Si       -3.976599161    12.455167854    -0.194548502
 C       -5.366417535    12.623137835     0.981559484
 C       -5.486133902    11.915675847     2.113230122
 C       -6.598700356    12.050449919     3.054273428
 C       -6.611354419    11.251759376     4.207081582
 C       -7.640294810    11.339511632     5.130044147
 C       -8.680359982    12.279004692     4.955006413
 C       -8.667145223    13.082450892     3.798363695
 C       -7.652508878    12.946760103     2.859360607
 N       -9.718523562    12.360154088     5.895865424
 C       -9.411474543    12.005522948     7.292292971
 C      -10.672907358    13.468957863     5.752051321
 C       -8.271516144    12.811585671     7.937992812
 C       -8.703132547    14.185780636     8.477874046
 N       -9.397538949    14.164167093     9.777921916
 C       -8.755937329    13.513396116    10.844786948
 C       -7.347973728    13.560554832    10.945016434
 C       -6.697920541    12.924977711    11.989833051
 C       -7.415257203    12.262820967    12.996730428
 C       -8.809728308    12.243858783    12.912163037
 C       -9.477824347    12.861613355    11.862403926
 C      -10.856774729    14.015600587     9.680402093
 C       -6.677863260    11.607249148    14.078330624
 C       -7.258237221    10.947646861    15.089196975
Si       -6.391086061    10.112018742    16.463605687
 C       -7.118400440    10.642537904    18.067704615
 C       -7.764123051    11.881003905    18.170083538
 C       -8.316936416    12.288803246    19.381456548
 C       -8.227928628    11.476902657    20.519863202
 C       -7.576353165    10.244536685    20.415174381
 C       -7.025805001     9.830641287    19.202961061
 C       -8.822964504    11.948032705    21.766248713
 C       -8.811777574    11.267150031    22.924773903
 C       -9.406690303    11.738015196    24.171195853
 C      -10.058333723    12.969338823    24.277954929
 C      -10.613103271    13.380172283    25.489973339
 C      -10.534170319    12.562747353    26.621804822
 C       -9.882208639    11.326511226    26.517072660
 C       -9.324308716    10.922024606    25.307555991
Si      -11.261507651    13.091182938    28.228352015
 C      -12.416042616    14.540620261    28.014842572
 C      -12.194888430    11.611871917    28.979260910
 C       -9.863030856    13.590684669    29.419353280
 C       -6.601809677     8.232186824    16.254093202
 C       -4.533767901    10.519430893    16.462913975
 C       -2.628536520    13.716679783     0.266174600
 C       -4.618160127    12.856834603    -1.939879198
 C       -0.612674939    -0.922357546    -1.548256364
 C       -0.659470642    -0.902415227     1.540793072
 H        1.209716284     2.699232565    -0.499294863
 H        0.283062312     4.943054669    -0.489965788
 H       -3.606073659     3.379720393     0.486711924
 H       -2.719327704     1.115181744     0.496846734
 H       -3.387889031     5.690309674     0.239095126
 H       -0.573044071     6.773812160    -0.459016678
 H       -0.351518785     9.082172821    -0.704473549
 H       -1.232972177    11.348561723    -0.710875170
 H       -5.165159084     9.772582472     0.293977887
 H       -4.244966885     7.524074208     0.264257760
 H       -6.115228287    13.378303475     0.699000108
 H       -4.747408443    11.162613030     2.423610876
 H       -5.803844442    10.537435543     4.376502346
 H       -7.637865199    10.678309289     5.991988722
 H       -9.450258927    13.810731451     3.617871134
 H       -7.677165777    13.568642246     1.963192078
 H      -11.427700433    13.428761955     6.554537554
 H      -11.218952899    13.351623841     4.796676256
 H      -10.197994372    14.463866269     5.765794867
 H      -11.238045624    14.579161129     8.812944063
 H      -11.323405557    14.462719542    10.578902011
 H      -11.192131307    12.968949337     9.594675839
 H       -6.764924406    14.095128813    10.200244951
 H       -5.608551221    12.955134185    12.034943591
 H       -9.393691450    11.737031309    13.682608372
 H      -10.561500380    12.819882523    11.837532322
 H       -5.589087840    11.711329667    13.983320659
 H       -8.355717023    10.856691503    15.151687131
 H       -7.859542097    12.557513097    17.314184412
 H       -8.820940847    13.251578184    19.442003347
 H       -7.493599569     9.595006262    21.284447129
 H       -6.529758544     8.856513384    19.181530827
 H       -9.300028081    12.930466001    21.702564025
 H       -8.334889389    10.284699913    22.988285087
 H      -10.137411706    13.622275199    23.410612980
 H      -11.109100620    14.354458616    25.511914628
 H       -9.790608059    10.645477499    27.367889136
 H       -8.820826742     9.959093116    25.246204916
 H      -10.341508181    12.095304725     7.895160004
 H       -9.157147367    10.917730018     7.311462945
 H       -7.823183514    12.212256971     8.757212084
 H       -7.451174885    12.952697647     7.204144171
 H       -7.803031944    14.837450768     8.595247842
 H       -9.346906890    14.707919385     7.736964698
 H        2.263410869    -1.029687566     0.041209922
 H        2.261485051     0.543922488     0.876788771
 H        2.274652245     0.478332314    -0.907043221
 H      -12.878718166    14.826240860    28.976425694
 H      -13.233979153    14.294963105    27.313362114
 H      -11.890360103    15.428569649    27.622178142
 H      -11.422664642    10.801993615    29.128215717
 C      -12.827908616    11.916372250    30.348665424
 C      -13.279770056    11.059690417    28.037005567
 H      -10.375297319    13.952030592    30.357477901
 C       -8.934364337    12.424581987    29.802464898
 C       -9.004689871    14.744766488    28.869580585
 H       -6.029183355     7.757488320    17.102543967
 C       -8.071137195     7.787616798    16.364862500
 C       -6.016419105     7.705459574    14.932024667
 H       -4.160416096    10.265218999    15.428783103
 C       -4.260073273    12.012809531    16.719227128
 C       -3.728263002     9.688393679    17.477618413
 H       -1.830272856    13.626351472    -0.525837325
 C       -3.133814805    15.170525957     0.266380752
 C       -1.986441155    13.410971036     1.631289317
 H       -5.017492305    13.910701852    -1.891232779
 C       -3.517547708    12.811244937    -3.014032428
 C       -5.770018234    11.928096608    -2.364101479
 H       -0.120757313    -1.937234380    -1.512826041
 C       -2.137029422    -1.132957023    -1.578417065
 C       -0.184936747    -0.230002391    -2.855379628
 H       -1.783834752    -0.905780558     1.439514288
 C       -0.191568806    -2.365041493     1.642950311
 C       -0.307355816    -0.170406441     2.848536632
 H      -12.100594776    12.252112938    31.099151302
 H      -13.293186204    11.007448739    30.757155213
 H      -13.624535317    12.670134853    30.294047466
 H      -12.890865314    10.769005509    27.050523292
 H      -14.104855966    11.765184542    27.871993701
 H      -13.728935140    10.153938302    28.468698105
 H       -9.458283538    11.591580639    30.287915331
 H       -8.175872620    12.769271962    30.520530127
 H       -8.379954120    12.020721702    28.943542303
 H       -9.582654944    15.651046671    28.647572366
 H       -8.453096841    14.470346904    27.958786735
 H       -8.247425297    15.037636284    29.610973658
 H       -8.550585045     8.096277291    17.304575008
 H       -8.136289535     6.690744493    16.333300713
 H       -8.693206664     8.156873526    15.538041077
 H       -4.943854314     7.909404670    14.818896895
 H       -6.527033008     8.110315694    14.046521222
 H       -6.128879723     6.613179892    14.879036106
 H       -4.766710804    12.681096432    16.009610756
 H       -3.184970724    12.221090409    16.626343011
 H       -4.548597200    12.330516972    17.731748862
 H       -3.784588348     8.607283651    17.298109060
 H       -4.030139297     9.873146113    18.518329480
 H       -2.662490464     9.953141019    17.417941201
 H       -3.538790707    15.491552524    -0.701683578
 H       -2.304694665    15.855999447     0.494041028
 H       -3.902439954    15.355250089     1.029936586
 H       -1.547213332    12.405426196     1.691969026
 H       -2.693282497    13.512647760     2.467596723
 H       -1.168391750    14.117111917     1.831090455
 H       -2.698998837    13.518648656    -2.830070109
 H       -3.937771611    13.077000592    -3.994856208
 H       -3.075958866    11.811169050    -3.131947728
 H       -6.624926911    11.949812093    -1.674457516
 H       -5.456274260    10.879491414    -2.470167814
 H       -6.158145314    12.232668096    -3.346304797
 H       -2.516119216    -1.699380720    -0.718473083
 H       -2.418492798    -1.708832893    -2.472160111
 H       -2.697209659    -0.188952220    -1.635206381
 H        0.902091880    -0.113286627    -2.952277812
 H       -0.638822512     0.763685559    -2.980414446
 H       -0.507835880    -0.826357773    -3.720746352
 H       -0.467904534    -2.972159402     0.771263545
 H       -0.658210670    -2.848211597     2.513746842
 H        0.893198672    -2.458532450     1.785483359
 H       -0.661584687     0.870189963     2.871968145
 H        0.770700194    -0.157370406     3.056650935
 H       -0.781242627    -0.675096826     3.702474510

