187   

Si        0.000000000     0.000000000     0.000000000
 C        1.865294823     0.000000000     0.000000000
 C       -0.670069973     1.714201452     0.000000000
 C        0.141126357     2.813078140    -0.298689937
 C       -0.384590470     4.105425033    -0.293743548
 C       -1.730985202     4.326093398     0.005509313
 C       -2.543958880     3.223025870     0.300813550
 C       -2.022471902     1.933061311     0.296568010
 C       -2.330099049     5.655477518     0.024449065
 C       -1.680459347     6.802753063    -0.236254737
 C       -2.307246311     8.120818894    -0.209693498
 C       -1.534395511     9.252201919    -0.498181527
 C       -2.099931021    10.526482818    -0.482103473
 C       -3.451627991    10.697228454    -0.167188666
 C       -4.226635998     9.566464256     0.122375237
 C       -3.660645698     8.294665386     0.097000877
Si       -4.271487622    12.345479523    -0.124734429
 C       -5.402205738    12.402336885     1.316186218
 C       -5.152716584    11.702364671     2.431336668
 C       -5.996404690    11.687733026     3.625428102
 C       -5.586749683    10.895848286     4.711293578
 C       -6.336569065    10.835740278     5.870729125
 C       -7.515816794    11.604550498     5.996267991
 C       -7.931348388    12.391350075     4.909511572
 C       -7.187357399    12.406765730     3.733150990
 N       -8.237159567    11.502064211     7.199504412
 C       -7.466581487    11.656977004     8.446460052
 C       -9.587812507    12.073507542     7.227462942
 C       -7.630934688    12.984428583     9.202873946
 C       -7.106817724    14.244800329     8.486324879
 N       -5.731491837    14.225314616     7.967443500
 C       -4.716639801    13.575492116     8.666574335
 C       -4.728682298    13.556306971    10.079317694
 C       -3.721744342    12.911443455    10.778729048
 C       -2.626429989    12.339471589    10.116019871
 C       -2.596971489    12.392452325     8.719071893
 C       -3.618904836    12.992476689     7.998442505
 C       -5.619528109    14.294409182     6.504343720
 C       -1.590106879    11.669713678    10.902631631
 C       -0.502979936    11.090079614    10.376109190
Si        0.816968528    10.242913487    11.313210276
 C        1.170379277     8.580839103    10.607958773
 C        0.365649777     8.019379299     9.612334024
 C        0.656515507     6.756367100     9.094696231
 C        1.755229430     6.029848969     9.560045456
 C        2.560230634     6.595068435    10.559112317
 C        2.272612087     7.853608218    11.077920766
 C        2.105612450     4.706841935     9.055262374
 C        1.434649179     4.036665419     8.103330520
 C        1.805662630     2.711998365     7.614482439
 C        2.913322224     2.014563967     8.105747316
 C        3.236927626     0.750812904     7.614477170
 C        2.454812462     0.151426095     6.620721763
 C        1.346896644     0.849380206     6.125026646
 C        1.030326094     2.115389638     6.612173585
Si        2.902289262    -1.518893060     5.987471745
 C        3.699060205    -2.552650912     7.319767081
 C        1.351345020    -2.396142127     5.320418114
 C        4.120917985    -1.304170426     4.539373616
 C        2.402886609    11.290844309    11.206148116
 C        0.316988588    10.067574444    13.141312675
 C       -2.984595999    13.735714870     0.037253870
 C       -5.265835597    12.607595745    -1.721841866
 C       -0.616311446    -0.941837865    -1.532903580
 C       -0.661740370    -0.877847855     1.555373511
 H        1.202393930     2.702080135    -0.538053157
 H        0.267495946     4.945342550    -0.526196148
 H       -3.595996806     3.373985343     0.535894548
 H       -2.704492035     1.111673366     0.533965686
 H       -3.395801999     5.667858704     0.275921547
 H       -0.617001997     6.800741425    -0.488122459
 H       -0.479500173     9.139165805    -0.740080444
 H       -1.450015986    11.372038113    -0.721257060
 H       -5.290326019     9.639183733     0.376276069
 H       -4.285857089     7.432415235     0.322838140
 H       -6.282302774    13.050373618     1.219646614
 H       -4.265985006    11.055850972     2.534299837
 H       -4.669817714    10.308027260     4.635799224
 H       -6.025413972    10.185544857     6.686184271
 H       -8.834553540    12.988111679     4.972564671
 H       -7.536662512    13.007871925     2.893152249
 H      -10.097644196    11.752460637     8.152916298
 H      -10.171221456    11.664951884     6.381417058
 H       -9.614474488    13.173194590     7.173252336
 H       -6.459182616    14.864756644     6.075686781
 H       -5.602673638    13.302247640     6.018091747
 H       -4.691781540    14.835139407     6.238228760
 H       -5.521858448    14.060281525    10.622013385
 H       -3.769833387    12.877622267    11.867480113
 H       -1.759343234    11.949693207     8.176897168
 H       -3.565384407    12.992780461     6.914111835
 H       -1.793277007    11.682203632    11.981457337
 H       -0.324227744    11.106061415     9.288038225
 H       -0.509641144     8.540967835     9.212828711
 H        0.015682600     6.339522754     8.320014286
 H        3.420886506     6.045381931    10.935104180
 H        2.938719056     8.244041455    11.852755607
 H        2.993198600     4.265658712     9.520162420
 H        0.547402507     4.469966694     7.633699000
 H        3.536257687     2.455515987     8.881918527
 H        4.114419667     0.256176840     8.040207214
 H        0.700501933     0.433157946     5.346905889
 H        0.167267205     2.643077906     6.209473300
 H       -7.788713835    10.820888109     9.115823678
 H       -6.379991322    11.494225573     8.248802937
 H       -8.695761301    13.150865111     9.456606069
 H       -7.118189643    12.870826453    10.181947919
 H       -7.800643198    14.491643527     7.649575891
 H       -7.164406930    15.103458502     9.202445274
 H        2.265316207    -1.028767212     0.042633521
 H        2.262072888     0.549064817     0.874500120
 H        2.271856407     0.476242242    -0.909271001
 H        3.927638600    -3.569030517     6.953130765
 H        3.026949689    -2.656472368     8.191265502
 H        4.643666510    -2.107748063     7.677576999
 H        0.962706367    -1.744204074     4.482625316
 C        1.642297506    -3.787520205     4.729133679
 C        0.237578455    -2.525016122     6.374576306
 H        4.398138388    -2.347504402     4.212858042
 C        3.509365523    -0.570237407     3.333048080
 C        5.412043143    -0.576418393     4.956988935
 H        3.176907700    10.745211721    11.819397515
 C        2.934674418    11.407500648     9.766503755
 C        2.233246485    12.701919637    11.795591962
 H       -0.001521551    11.099707372    13.469462628
 C       -0.876678575     9.112939427    13.329001728
 C        1.460512747     9.612561405    14.065302193
 H       -2.295603462    13.629177283    -0.849905246
 C       -3.603401032    15.144391170    -0.008807286
 C       -2.141346321    13.605662046     1.318956766
 H       -5.743643940    13.625441103    -1.627041904
 C       -4.386616181    12.607247817    -2.984831980
 C       -6.388285979    11.568482010    -1.894651801
 H       -0.141645895    -1.963914481    -1.475765661
 C       -2.143686223    -1.128712633    -1.570909638
 C       -0.168928630    -0.280971958    -2.849850951
 H       -1.774421144    -0.984289596     1.396812581
 C       -0.080854965    -2.286866795     1.763510184
 C       -0.447915721    -0.046010635     2.832799979
 H        2.373949574    -3.767862044     3.911094626
 H        0.721285910    -4.215807317     4.307621842
 H        1.998245059    -4.506216728     5.479069171
 H       -0.056234655    -1.563582941     6.819277891
 H        0.505466204    -3.199540698     7.198901752
 H       -0.669796713    -2.942735092     5.916067444
 H        2.647079654    -1.093730012     2.898264442
 H        4.253007496    -0.484342178     2.527702342
 H        3.194930868     0.456411256     3.570908944
 H        5.957853585    -1.083735008     5.762475408
 H        5.233082030     0.460653430     5.276006024
 H        6.105308641    -0.520639639     4.105549691
 H        3.124896960    10.433968101     9.292973395
 H        3.894732337    11.942845850     9.762051783
 H        2.262984972    11.973261221     9.106441979
 H        1.935133299    12.699762661    12.851813480
 H        1.500772836    13.309624123    11.244816906
 H        3.185921866    13.248088392    11.745391763
 H       -1.759200632     9.389944912    12.736127185
 H       -1.197609104     9.111285539    14.379917173
 H       -0.630633895     8.070533454    13.079834790
 H        2.334987012    10.274781160    14.037021821
 H        1.802363298     8.590807572    13.850110240
 H        1.116563450     9.604240793    15.109882489
 H       -4.152457614    15.349011942    -0.936769250
 H       -2.810888396    15.904520017     0.051295005
 H       -4.281211079    15.341494300     0.833260720
 H       -1.620324182    12.642144991     1.404919707
 H       -2.734842465    13.741682349     2.235061929
 H       -1.361523326    14.379860735     1.337907179
 H       -3.610437798    13.383172601    -2.976647886
 H       -5.004577761    12.800739576    -3.873607333
 H       -3.891684471    11.641365426    -3.161251920
 H       -7.093456863    11.543006268    -1.052903501
 H       -6.005965878    10.547699987    -2.039977924
 H       -6.983622737    11.802414821    -2.788673460
 H       -2.538114792    -1.676845541    -0.706173391
 H       -2.428042972    -1.713077148    -2.458301293
 H       -2.688411630    -0.176834353    -1.645267955
 H        0.920379874    -0.182812291    -2.941407293
 H       -0.607053327     0.716741851    -2.996992589
 H       -0.495051417    -0.888730099    -3.706104611
 H       -0.251363971    -2.957988923     0.912379346
 H       -0.558533185    -2.765290756     2.631632048
 H        0.997960607    -2.280939119     1.972074839
 H       -0.928409816     0.942488796     2.789343735
 H        0.613996705     0.118339130     3.065122872
 H       -0.889189440    -0.563387591     3.697202231

