187   

Si        0.000000000     0.000000000     0.000000000
 C        1.865813046     0.000000000     0.000000000
 C       -0.661652361     1.717762397     0.000000000
 C        0.125254195     2.781982283    -0.452961539
 C       -0.375249283     4.083472615    -0.453267374
 C       -1.679069705     4.349018858    -0.024890145
 C       -2.469233774     3.280537631     0.418216180
 C       -1.967764504     1.981322786     0.432123977
 C       -2.239964228     5.695461626    -0.009838762
 C       -1.577924983     6.798910109    -0.397423619
 C       -2.130943578     8.148511645    -0.385614052
 C       -1.324135558     9.209216233    -0.818942433
 C       -1.807473950    10.514863811    -0.825939057
 C       -3.115029250    10.788405072    -0.405724803
 C       -3.922926238     9.731016544     0.025714084
 C       -3.433546744     8.425455848     0.036989434
Si       -3.769685983    12.514922254    -0.409552740
 C       -5.589699208    12.363961923    -0.446026685
 C       -6.519532699    12.944053229     0.322836496
 C       -7.955321668    12.704300780     0.149482124
 C       -8.877730003    13.342860199     0.987814533
 C      -10.242136554    13.133799492     0.845572057
 C      -10.741890363    12.306635732    -0.179045080
 C       -9.813869559    11.664178604    -1.024755953
 C       -8.451899197    11.850244362    -0.841640579
 N      -12.116180626    12.074258784    -0.350565932
 C      -13.087243994    12.896107741     0.382187481
 C      -12.562341665    11.711112147    -1.706257209
 C      -13.248228204    14.319676282    -0.178260620
 C      -14.326779363    15.125818942     0.568236780
 N      -14.117879575    15.299909199     2.024124120
 C      -12.770712071    15.502422354     2.406910500
 C      -12.051141719    16.528203356     1.758591574
 C      -10.730619865    16.769341614     2.094188212
 C      -10.091922503    16.021301307     3.095566918
 C      -10.816085289    15.026047978     3.753891671
 C      -12.145435208    14.773589324     3.430291675
 C      -14.897384677    14.354893883     2.840394918
 C       -8.694373908    16.322661366     3.405950132
 C       -7.974004331    15.683933678     4.336482419
Si       -6.229240497    16.049515797     4.734313253
 C       -5.247245183    14.495652428     4.735036881
 C       -5.609904720    13.419656350     3.918408479
 C       -4.860710123    12.242540970     3.923104603
 C       -3.722629186    12.127927292     4.725436745
 C       -3.358563327    13.210859655     5.538161324
 C       -4.113475690    14.379485542     5.548612814
 C       -2.898921770    10.926440449     4.774648562
 C       -3.105343243     9.804319038     4.064828033
 C       -2.248464458     8.625225713     4.150708666
 C       -1.132716112     8.576689177     4.991169608
 C       -0.332729799     7.436820760     5.052205207
 C       -0.620245770     6.323634773     4.256608377
 C       -1.730849480     6.373688960     3.403643010
 C       -2.532069666     7.511421878     3.350553416
Si        0.433929929     4.817338777     4.334881818
 C        1.860029733     5.035585414     5.519849616
 C       -0.592754390     3.313369158     4.891874083
 C        1.084259916     4.469000377     2.584831795
 C       -5.470964175    17.212989326     3.432051173
 C       -6.148994264    16.891761413     6.435547533
 C       -3.102915272    13.414337731     1.132533460
 C       -3.229989997    13.386175339    -2.015494106
 C       -0.640840100    -0.913912527    -1.539016862
 C       -0.635757088    -0.898019796     1.554277363
 H        1.148584154     2.636314245    -0.809483017
 H        0.262060366     4.895944910    -0.798814415
 H       -3.487805677     3.464293292     0.755256815
 H       -2.629968457     1.188415574     0.790199135
 H       -3.272365172     5.759440065     0.344397444
 H       -0.544060322     6.732479679    -0.749647720
 H       -0.305655535     9.014120898    -1.148376233
 H       -1.131014812    11.304400976    -1.164220917
 H       -4.951146608     9.888023955     0.368697272
 H       -4.082189635     7.618522426     0.372061117
 H       -5.897530550    11.684275796    -1.264215860
 H       -6.277863151    13.640296848     1.134778448
 H       -8.527275782    14.018003150     1.773573125
 H      -10.921706436    13.640812838     1.527071413
 H      -10.153511803    11.002782002    -1.814591701
 H       -7.760720359    11.323192252    -1.502125344
 H      -13.662221269    11.713085615    -1.768689901
 H      -12.229609460    10.680391030    -1.929940687
 H      -12.170312987    12.386887316    -2.484339035
 H      -15.960919190    14.424677567     2.552720829
 H      -14.837968616    14.656724680     3.902058800
 H      -14.579626468    13.304583359     2.751763926
 H      -12.539910704    17.131063100     0.997422127
 H      -10.182935769    17.556286815     1.574701165
 H      -10.341376446    14.432716030     4.537457181
 H      -12.677412422    13.992623140     3.964531792
 H       -8.287253404    17.139421501     2.794207256
 H       -8.410355459    14.874429037     4.944033138
 H       -6.493814668    13.454231047     3.271791177
 H       -5.168489636    11.411298185     3.289234276
 H       -2.477667160    13.138430590     6.172831059
 H       -3.784306787    15.186525264     6.208285512
 H       -2.052317427    10.990711493     5.466521786
 H       -3.941721529     9.723746015     3.365203783
 H       -0.879169982     9.432063217     5.614573720
 H        0.520055547     7.457828576     5.735771177
 H       -1.991101118     5.540134668     2.742618539
 H       -3.383863121     7.536224461     2.673144047
 H      -14.065018932    12.361986142     0.365770714
 H      -12.779187176    12.932542381     1.454081577
 H      -12.271582670    14.844924292    -0.133237792
 H      -13.505004582    14.279177761    -1.253036539
 H      -14.380024253    16.152642578     0.131602367
 H      -15.325467433    14.669513944     0.396405519
 H        2.262946584    -1.026766221     0.090204176
 H        2.260186971     0.584803411     0.851469207
 H        2.277962757     0.434125626    -0.927340412
 H        2.474084783     4.119308947     5.574394958
 H        1.510255382     5.263765977     6.541581864
 H        2.521806931     5.858944027     5.196824699
 H        0.114077076     2.434789977     4.842916979
 C       -1.094489554     3.441189358     6.342301049
 C       -1.797180644     3.005923921     3.985297242
 H        0.169064075     4.213345501     1.969971473
 C        1.753479092     5.697518986     1.942770299
 C        2.048965170     3.272817486     2.511154872
 H       -6.090890702    18.154669720     3.453740050
 C       -4.013416010    17.594071149     3.747677809
 C       -5.531931221    16.627378158     2.009818236
 H       -5.061053078    17.131780326     6.615270411
 C       -6.939894515    18.210735468     6.492297070
 C       -6.627254910    15.971643119     7.572914072
 H       -3.980864613    13.485173194     1.843557955
 C       -1.990431028    12.630175442     1.852712782
 C       -2.589370177    14.842737064     0.880971783
 H       -2.147855117    13.666738386    -1.869213479
 C       -3.323989221    12.473193949    -3.252467106
 C       -4.026796571    14.672152991    -2.302544026
 H       -0.166966946    -1.937407895    -1.509775036
 C       -2.169467196    -1.095487579    -1.545515235
 C       -0.218115285    -0.230327495    -2.852288239
 H       -1.761868462    -0.838344637     1.510029751
 C       -0.246643487    -2.386366180     1.603431929
 C       -0.176439003    -0.218817843     2.857040223
 H       -0.285941094     3.565342412     7.073725095
 H       -1.637070103     2.531136103     6.634627704
 H       -1.796954575     4.275545442     6.479010087
 H       -1.536450572     2.906850830     2.921150158
 H       -2.589252391     3.763707184     4.063874732
 H       -2.256028384     2.051672725     4.280292554
 H        1.089822362     6.573748712     1.896292220
 H        2.038418187     5.471074591     0.905863788
 H        2.672394529     6.005270511     2.457639883
 H        1.612968864     2.339952896     2.892762037
 H        2.991251136     3.448094024     3.045055458
 H        2.315927927     3.075931837     1.462098080
 H       -3.894314670    18.107635169     4.709975142
 H       -3.631416552    18.286764417     2.983901374
 H       -3.334626370    16.728818344     3.743888435
 H       -6.551135756    16.404617736     1.665916914
 H       -4.942165731    15.703515816     1.906348968
 H       -5.114588343    17.342854624     1.287881494
 H       -6.595958816    18.956779908     5.764471437
 H       -6.827755530    18.674426166     7.482963040
 H       -8.019523251    18.069824641     6.339884140
 H       -6.084047010    15.017258725     7.620936669
 H       -7.699559819    15.739797924     7.513040157
 H       -6.472169939    16.461801373     8.544731756
 H       -2.293061703    11.614052632     2.148954400
 H       -1.716324432    13.141076311     2.787691630
 H       -1.070241224    12.540407072     1.263154464
 H       -3.333324319    15.501916213     0.415954447
 H       -1.685257752    14.868456451     0.259721828
 H       -2.319182838    15.313374053     1.838608529
 H       -2.743713124    11.545042660    -3.158152615
 H       -2.927638163    12.993689742    -4.135644154
 H       -4.356908174    12.191749153    -3.498297083
 H       -3.944978906    15.424863536    -1.507909005
 H       -5.097073208    14.482429570    -2.468151454
 H       -3.652273090    15.150843933    -3.218073431
 H       -2.544399004    -1.662712946    -0.684095694
 H       -2.477342002    -1.657216775    -2.439475062
 H       -2.713022587    -0.140714201    -1.582631673
 H        0.869538025    -0.135130693    -2.964336962
 H       -0.654941490     0.771582204    -2.972084919
 H       -0.564428029    -0.820881817    -3.712682299
 H       -0.607676493    -2.959453329     0.739777912
 H       -0.688734584    -2.860747180     2.491719998
 H        0.837203414    -2.544595868     1.679633875
 H       -0.459330889     0.843139389     2.917296209
 H        0.908306903    -0.282790651     3.014434121
 H       -0.643285780    -0.709414461     3.722902169

