187   

Si        0.000000000     0.000000000     0.000000000
 C        1.865491759     0.000000000     0.000000000
 C       -0.677593033     1.711545491     0.000000000
 C        0.144045487     2.814017750     0.254886713
 C       -0.381296116     4.106082276     0.252087003
 C       -1.738350896     4.325281679     0.001901326
 C       -2.561047214     3.219154529    -0.250314044
 C       -2.039080168     1.928654063    -0.251964558
 C       -2.331303088     5.658489576    -0.011008432
 C       -1.655190789     6.798478659     0.210962478
 C       -2.247635122     8.131924176     0.198171252
 C       -1.422655286     9.237267398     0.446761454
 C       -1.942735317    10.528712904     0.444949750
 C       -3.305991038    10.743555931     0.206294676
 C       -4.132041369     9.642270538    -0.040523092
 C       -3.605609199     8.351012473    -0.048648537
Si       -4.000534181    12.447067279     0.202314412
 C       -5.804138268    12.384534733     0.476103386
 C       -6.746141065    12.994504391    -0.255399073
 C       -8.179632763    12.896462504     0.027990192
 C       -9.091609722    13.570488648    -0.793822537
 C      -10.457767787    13.502071961    -0.557792129
 C      -10.955021079    12.795530930     0.553902059
 C      -10.037256571    12.121279951     1.384910506
 C       -8.679535139    12.158521604     1.106469264
 N      -12.331551089    12.697268686     0.835856713
 C      -13.272359785    13.472637755     0.017471893
 C      -12.696783086    12.657760198     2.263436380
 C      -13.253212650    14.985900640     0.292789880
 C      -14.095745764    15.759705347    -0.735123868
 N      -13.491795037    15.885178089    -2.071682820
 C      -12.204844867    16.436298619    -2.162256122
 C      -11.810552170    17.443390648    -1.254144474
 C      -10.543794060    17.997843510    -1.329922266
 C       -9.635843308    17.602828738    -2.323177743
 C      -10.036698864    16.623863914    -3.235693130
 C      -11.300044670    16.050041961    -3.169652934
 C      -13.831199366    14.800279270    -3.002900844
 C       -8.310169851    18.222653203    -2.355575791
 C       -7.364692561    17.924323322    -3.255975992
Si       -5.696772136    18.665119003    -3.343006178
 C       -5.375645494    19.228288130    -5.065095430
 C       -6.448388238    19.546641421    -5.907266543
 C       -6.216970591    19.973831471    -7.212277313
 C       -4.911290958    20.105035087    -7.703119691
 C       -3.842952210    19.793101975    -6.857324982
 C       -4.071092161    19.360163234    -5.551735964
 C       -4.720813060    20.556271426    -9.077653366
 C       -3.526641062    20.719224962    -9.671942132
 C       -3.337939757    21.170590733   -11.046710760
 C       -4.406520826    21.482103071   -11.891218101
 C       -4.180656667    21.910260686   -13.199376654
 C       -2.878205526    22.030251368   -13.693804268
 C       -1.804486766    21.717289955   -12.849005882
 C       -2.032998881    21.295065883   -11.542422324
Si       -2.563141508    22.593871542   -15.417674151
 C       -4.124896618    22.587603117   -16.437836725
 C       -1.859434020    24.362293424   -15.389620698
 C       -1.265492665    21.437859455   -16.194427073
 C       -5.538268911    20.153218577    -2.169272183
 C       -4.405721811    17.363242298    -2.843706927
 C       -3.215221415    13.449941660     1.617101412
 C       -3.593693837    13.270907099    -1.460657943
 C       -0.658077252    -0.899869163    -1.542901267
 C       -0.609812628    -0.926404600     1.546979881
 H        1.212927547     2.705773068     0.458449468
 H        0.280489823     4.947446590     0.449423012
 H       -3.620934696     3.367786581    -0.448269382
 H       -2.728871315     1.105349659    -0.457918254
 H       -3.404699447     5.679886850    -0.221171067
 H       -0.581800317     6.776989232     0.420843912
 H       -0.362503074     9.087634032     0.641128399
 H       -1.251229673    11.352919752     0.639818433
 H       -5.203931204     9.753262872    -0.235807543
 H       -4.267240094     7.509925976    -0.247589849
 H       -6.077886266    11.773975507     1.353836180
 H       -6.516336283    13.616874726    -1.129818210
 H       -8.730590527    14.160724063    -1.638360874
 H      -11.128906422    14.029690586    -1.231210173
 H      -10.388722204    11.548006162     2.237089300
 H       -7.994178864    11.609546255     1.754418517
 H      -13.787803783    12.746747102     2.387029172
 H      -12.213600397    13.452885443     2.854508972
 H      -12.405343543    11.677454650     2.682903659
 H      -14.861998617    14.452042317    -2.826111990
 H      -13.154315391    13.930990289    -2.940061737
 H      -13.800378006    15.194722720    -4.036634449
 H      -12.499008874    17.789455592    -0.489239670
 H      -10.253841001    18.760834778    -0.606485979
 H       -9.350508734    16.297616014    -4.019397558
 H      -11.568513247    15.293260053    -3.899155359
 H       -8.160911807    18.964677869    -1.560374680
 H       -7.543634349    17.167457257    -4.037979917
 H       -7.489198247    19.467426789    -5.575918038
 H       -7.062744599    20.210757867    -7.855067726
 H       -2.819024976    19.886460614    -7.214071292
 H       -3.196283499    19.129565935    -4.937859378
 H       -5.646419481    20.764194450    -9.622658741
 H       -2.600922125    20.511456164    -9.127471914
 H       -5.430302920    21.393676095   -11.532210940
 H       -5.056838649    22.140107965   -13.811923453
 H       -0.765105508    21.791142603   -13.181232279
 H       -1.186301006    21.057608120   -10.901138930
 H      -13.047747879    13.262949024    -1.053726385
 H      -14.293552321    13.063032941     0.194005498
 H      -13.628972029    15.190399944     1.311799131
 H      -12.207466135    15.359047041     0.289874111
 H      -15.100506932    15.292683311    -0.838629386
 H      -14.286801287    16.793447837    -0.357038954
 H        2.263391433    -1.029783363    -0.038644617
 H        2.274770078     0.480745381     0.905764046
 H        2.261535768     0.541556848    -0.878245997
 H       -3.919640442    22.884747554   -17.481809824
 H       -4.879368557    23.286194492   -16.035638866
 H       -4.577443810    21.579657840   -16.463060532
 H       -1.748053946    24.662477648   -16.471680408
 C       -2.811247326    25.364975060   -14.711749412
 C       -0.476432142    24.467015949   -14.722221271
 H       -0.342039852    21.533815377   -15.552177445
 C       -1.702725652    19.962012227   -16.171613327
 C       -0.880887102    21.825016304   -17.633461430
 H       -5.844663404    19.780269572    -1.149257814
 C       -4.101156200    20.694934624    -2.066815231
 C       -6.475743231    21.310674013    -2.558739448
 H       -3.400971395    17.856068961    -2.992032602
 C       -4.511360856    16.940906800    -1.368587726
 C       -4.456492369    16.109821241    -3.734395743
 H       -2.122613652    13.554591240     1.357111990
 C       -3.809448425    14.861465470     1.762252432
 C       -3.313481797    12.726324756     2.972500579
 H       -4.165272958    14.245970103    -1.470315900
 C       -2.099503555    13.591383199    -1.639629924
 C       -4.069591965    12.430416411    -2.659536408
 H       -1.782870368    -0.896424187    -1.446264128
 C       -0.296460069    -0.170394459    -2.849439112
 C       -0.198215842    -2.365199132    -1.642549647
 H       -0.110760902    -1.937867308     1.512211636
 C       -0.188970774    -0.231121517     2.854834161
 C       -2.132628385    -1.148367980     1.575090727
 H       -3.800392870    25.416030350   -15.184647478
 H       -2.391634849    26.379698423   -14.767446306
 H       -2.963806153    25.153684820   -13.643491874
 H        0.288036261    23.844287146   -15.203740771
 H       -0.497836657    24.210689398   -13.653627305
 H       -0.109235548    25.502132619   -14.780314082
 H       -1.939487478    19.595334014   -15.162466684
 H       -0.891708964    19.322340089   -16.547872288
 H       -2.574431484    19.762393798   -16.808732158
 H       -0.487150437    22.846100620   -17.718515341
 H       -1.715211241    21.728125281   -18.340696545
 H       -0.087634222    21.158320082   -18.001950015
 H       -3.381410637    19.953996971    -1.696207246
 H       -4.066360167    21.536419302    -1.359620102
 H       -3.721417165    21.084332522    -3.022077133
 H       -7.533866615    21.020586127    -2.613247110
 H       -6.210783679    21.766496049    -3.523868856
 H       -6.413645212    22.114555234    -1.811839258
 H       -4.457903633    17.781885308    -0.665364106
 H       -3.671470508    16.276622211    -1.112930023
 H       -5.434824670    16.384783627    -1.148623793
 H       -4.353950893    16.331120462    -4.805642970
 H       -5.379211196    15.527631764    -3.601742445
 H       -3.625027462    15.434619239    -3.481707114
 H       -3.694690806    15.476760680     0.860508281
 H       -3.300725730    15.403538593     2.571823470
 H       -4.877806854    14.850652866     2.023197438
 H       -2.870435123    11.720447872     2.963605882
 H       -4.347169778    12.629693697     3.331921055
 H       -2.771068534    13.292956084     3.742494690
 H       -1.709902763    14.286157036    -0.884901620
 H       -1.930246570    14.071651084    -2.614606456
 H       -1.465018147    12.693871981    -1.630701538
 H       -5.142370635    12.193589589    -2.630605264
 H       -3.526537365    11.479233039    -2.755755209
 H       -3.899454037    12.977911728    -3.597382590
 H       -0.646347715     0.871660753    -2.875296732
 H       -0.768242240    -0.673526143    -3.705427745
 H        0.782608786    -0.161974656    -3.052331216
 H       -0.485911582    -2.971362691    -0.773875662
 H        0.887095733    -2.465386198    -1.775826238
 H       -0.660214473    -2.844519879    -2.517916415
 H        0.897210363    -0.108697341     2.954285927
 H       -0.511043638    -0.828699696     3.719652833
 H       -0.648162238     0.760359258     2.978098936
 H       -2.507338952    -1.711530329     0.711116140
 H       -2.699470773    -0.208782515     1.638046511
 H       -2.410205868    -1.732395329     2.464727385

