187   

Si        0.000000000     0.000000000     0.000000000
 C        1.865273581     0.000000000     0.000000000
 C       -0.679409764     1.710751496     0.000000000
 C        0.133893894     2.812191039    -0.284282856
 C       -0.393684758     4.103414879    -0.280923330
 C       -1.745366650     4.322325378    -0.002907408
 C       -2.560082245     3.217070097     0.277626396
 C       -2.035565097     1.927684462     0.279713346
 C       -2.341090870     5.654228626     0.011883299
 C       -1.673687520     6.794395917    -0.234247055
 C       -2.270664775     8.125812548    -0.219138488
 C       -3.623039968     8.342043665     0.059263488
 C       -4.152486297     9.632146884     0.063131267
 C       -3.341023980    10.734301322    -0.224021361
 C       -1.984972560    10.520565377    -0.504523197
 C       -1.457166343     9.232339731    -0.496827413
Si       -4.017190891    12.443232056    -0.224681043
 C       -3.163984419    13.531084229    -1.419902686
 C       -2.611733473    13.098741978    -2.561415215
 C       -1.926863538    13.960671215    -3.524476211
 C       -1.390461514    13.383817087    -4.684025159
 C       -0.731931671    14.152600124    -5.629468271
 C       -0.618233738    15.550021950    -5.461346636
 C       -1.142816508    16.126278698    -4.289542270
 C       -1.755187948    15.333378597    -3.328006515
 N        0.054275996    16.317855752    -6.431385272
 C       -0.069362196    15.869855005    -7.833794645
 C       -0.017187460    17.780563815    -6.276254775
 C       -1.504585827    15.595954581    -8.321340859
 C       -2.245145422    16.860426189    -8.798735872
 N       -3.658634114    16.951356867    -8.364082342
 C       -3.771780626    17.234379833    -6.964956822
 C       -3.535569696    18.566603706    -6.583067591
 C       -3.623888069    18.928746751    -5.248411286
 C       -3.946269369    17.980436654    -4.265626191
 C       -4.199866653    16.663522855    -4.657092530
 C       -4.135562808    16.291821449    -5.997123351
 C       -4.476412787    15.818735524    -8.832466293
 C       -4.023955090    18.426727833    -2.872812083
 C       -4.320170870    17.634971415    -1.833458137
Si       -4.403406218    18.248131095    -0.109905546
 C       -4.917893876    20.012280346    -0.036933027
 C       -5.804279381    20.516985518    -0.995706655
 C       -6.206353708    21.850936141    -0.957820872
 C       -5.743252928    22.708127551     0.044776912
 C       -4.863943849    22.198893738     1.009025219
 C       -4.458236886    20.866919820     0.971632383
 C       -6.137176384    24.110902324     0.123797243
 C       -6.971288907    24.719731217    -0.736175944
 C       -7.366586039    26.122218908    -0.659132946
 C       -6.903547432    26.982638604     0.339591525
 C       -7.307725104    28.317166560     0.375094809
 C       -8.178965305    28.822610301    -0.594806065
 C       -8.643769185    27.961960181    -1.598534913
 C       -8.244050552    26.628883519    -1.627313019
Si       -8.721942449    30.581365609    -0.562143670
 C       -7.694575760    31.595452157     0.619356560
 C       -8.579199768    31.281638107    -2.326396899
 C      -10.544327223    30.672936791    -0.020171842
 C       -5.618570024    17.159468312     0.860189425
 C       -2.668858180    18.086593207     0.662353634
 C       -5.863135660    12.411182224    -0.693216273
 C       -3.839964731    13.194864932     1.512800108
 C       -0.611124456    -0.923084921    -1.548513774
 C       -0.657275576    -0.904081461     1.540892670
 H        1.198049184     2.703603662    -0.511226504
 H        0.262133190     4.944232464    -0.499597174
 H       -3.615605387     3.365570868     0.497570873
 H       -2.719171066     1.105296770     0.508803076
 H       -3.409725859     5.674428395     0.245112268
 H       -0.605008879     6.774826151    -0.467315977
 H       -4.276877457     7.500093057     0.278685223
 H       -5.215968989     9.738057521     0.293744421
 H       -1.302907245    11.346880010    -0.733333272
 H       -0.400472448     9.086004821    -0.713242601
 H       -3.149670021    14.596820102    -1.144965615
 H       -2.625014260    12.041858480    -2.863760293
 H       -1.485825916    12.309489756    -4.846407974
 H       -0.296448783    13.670487953    -6.499370402
 H       -1.079189980    17.197057153    -4.116877072
 H       -2.132000742    15.808890348    -2.419429295
 H        0.529914627    18.276389898    -7.093774670
 H        0.487035482    18.065945265    -5.334300066
 H       -1.050164369    18.171530897    -6.257003534
 H       -4.468008952    15.816199823    -9.936233139
 H       -5.521987732    15.972557370    -8.511930029
 H       -4.144332245    14.830166407    -8.481034239
 H       -3.300490092    19.306438571    -7.345954872
 H       -3.444949225    19.965514368    -4.962391974
 H       -4.454645888    15.907895732    -3.911221672
 H       -4.340284919    15.261729747    -6.275964831
 H       -3.813998713    19.500741747    -2.758109148
 H       -4.522238750    16.561074188    -1.966053105
 H       -6.205389663    19.892166519    -1.801373010
 H       -6.891251444    22.220361570    -1.719151167
 H       -4.492379286    22.848702312     1.799115237
 H       -3.772279849    20.527565386     1.752435159
 H       -5.696952519    24.663795066     0.958718243
 H       -7.411831887    24.165994505    -1.570651957
 H       -6.220797463    26.615263001     1.103548921
 H       -6.913743370    28.941015799     1.182209268
 H       -9.325846128    28.301494615    -2.383221338
 H       -8.617475579    25.975245781    -2.413363036
 H        0.427291699    16.613961136    -8.493917015
 H        0.538387235    14.937219104    -7.928849224
 H       -1.477163024    14.849434254    -9.135533123
 H       -2.083339601    15.111352322    -7.506288584
 H       -1.722804760    17.777467259    -8.447239035
 H       -2.241765934    16.911812956    -9.910302917
 H        2.262892509    -1.029757143     0.043623250
 H        2.261443227     0.545772553     0.875654683
 H        2.275016711     0.476248087    -0.907892500
 H       -8.000720457    32.656747458     0.602936320
 H       -6.623890096    31.555093084     0.348466334
 H       -7.793353571    31.237219516     1.659009774
 H       -9.258315058    30.646489138    -2.966660818
 C       -9.048342351    32.742364909    -2.447359093
 C       -7.152926294    31.163845835    -2.893578575
 H      -10.788744742    31.772977342     0.039897704
 C      -11.519538752    30.022791250    -1.017671194
 C      -10.777783133    30.055736076     1.370980861
 H       -5.257105486    16.097418503     0.725348873
 C       -5.642217853    17.463969331     2.367604854
 C       -7.051726984    17.249682279     0.306765689
 H       -2.764926005    18.486793007     1.713046996
 C       -2.151989717    16.642276561     0.754956836
 C       -1.625780551    18.939696932    -0.082361097
 H       -6.371678651    11.769870931     0.082448767
 C       -6.524842645    13.799811184    -0.669709081
 C       -6.097670388    11.771576908    -2.073610458
 H       -4.210048302    14.258780055     1.432688238
 C       -4.692052913    12.478756020     2.574800052
 C       -2.375831119    13.227623642     1.985704849
 H       -0.113574295    -1.935395799    -1.515561675
 C       -2.134331662    -1.142548980    -1.575526292
 C       -0.189977780    -0.226887320    -2.855666738
 H       -1.781892759    -0.905884748     1.442065046
 C       -0.191368647    -2.367641030     1.639501038
 C       -0.301169849    -0.174794688     2.848993657
 H      -10.088401652    32.892576642    -2.130047682
 H       -8.997790255    33.066919529    -3.496979293
 H       -8.420902608    33.442415773    -1.879849152
 H       -6.769207196    30.133502167    -2.891811134
 H       -6.425192352    31.788670270    -2.358989701
 H       -7.135065973    31.495885372    -3.941437686
 H      -11.478683940    30.467387433    -2.020079660
 H      -12.554532896    30.150796370    -0.668166209
 H      -11.364834394    28.939569716    -1.121490976
 H      -10.178968080    30.524353274     2.162554672
 H      -10.577296153    28.974910622     1.397815728
 H      -11.829307687    30.180506592     1.666994302
 H       -4.669346765    17.323244254     2.856025684
 H       -6.341880486    16.786122088     2.878017521
 H       -5.986112954    18.482864011     2.594659790
 H       -7.127916097    16.976811947    -0.754966192
 H       -7.493698321    18.249475789     0.423970113
 H       -7.712231144    16.560099885     0.851381858
 H       -2.811300878    15.981022315     1.333086602
 H       -1.178283011    16.623225302     1.265924881
 H       -1.985499914    16.182138841    -0.229331760
 H       -1.885931566    20.005866518    -0.130467478
 H       -1.448537103    18.595991883    -1.112099502
 H       -0.656192103    18.885162886     0.432240214
 H       -6.481835875    14.285004269     0.314557892
 H       -7.592039480    13.711877673    -0.918701877
 H       -6.094238569    14.492537504    -1.407182624
 H       -5.711666122    10.745856894    -2.151065922
 H       -5.654975607    12.353864980    -2.895275303
 H       -7.174417480    11.709087807    -2.283722326
 H       -5.767898337    12.503783124     2.359511557
 H       -4.563560329    12.966634545     3.552001492
 H       -4.404222240    11.427811161     2.719329948
 H       -1.705545962    13.764277926     1.299686365
 H       -1.954856872    12.223130339     2.137617264
 H       -2.302506789    13.738829462     2.955897008
 H       -2.506812590    -1.717645833    -0.718415115
 H       -2.415261332    -1.713617309    -2.472495684
 H       -2.700657449    -0.201792731    -1.623470321
 H        0.896342594    -0.106007510    -2.955523447
 H       -0.647835438     0.765372573    -2.977476607
 H       -0.513254734    -0.822748879    -3.721211579
 H       -0.473624699    -2.973430462     0.768776454
 H       -0.654149707    -2.850700847     2.512415492
 H        0.893945953    -2.463453550     1.776079585
 H       -0.654072971     0.866181146     2.875218195
 H        0.777445413    -0.163379762     3.054434722
 H       -0.773445805    -0.680435922     3.703276316

