187   

Si        0.000000000     0.000000000     0.000000000
 C        1.865531418     0.000000000     0.000000000
 C       -0.676550735     1.711735308     0.000000000
 C        0.154819752     2.817639492     0.203094417
 C       -0.370156525     4.109626496     0.200800373
 C       -1.736621457     4.325389336     0.003294270
 C       -2.568852176     3.216281566    -0.197834619
 C       -2.047009066     1.925651000    -0.201144592
 C       -2.326809393     5.659698582    -0.006476283
 C       -1.632781143     6.796589845     0.169697278
 C       -2.207202707     8.136973795     0.162726778
 C       -3.569307102     8.378072400    -0.032565233
 C       -4.070970080     9.680530830    -0.030628301
 C       -3.213010690    10.769873559     0.139987148
 C       -1.843410185    10.529978977     0.325337412
 C       -1.348517475     9.230365851     0.338979231
Si       -3.809930789    12.514324130     0.152500341
 C       -2.793919406    13.448152241     1.355308905
 C       -2.269270201    12.840281142     2.427908361
 C       -1.446292885    13.485334472     3.448313985
 C       -0.980371666    12.687900222     4.507545114
 C       -0.197072982    13.227688415     5.509471082
 C        0.208991865    14.577378106     5.440440762
 C       -0.246098735    15.373826573     4.380333747
 C       -1.088367874    14.831669793     3.411509397
 N        1.012408698    15.071010019     6.501111626
 C        2.232821238    14.284473861     6.767754716
 C        1.246813776    16.523482927     6.520824939
 C        3.418508098    14.505461964     5.805571688
 C        3.138141310    14.115876853     4.344466374
 N        2.716655216    12.707670128     4.139007746
 C        2.364280114    12.394981783     2.803843505
 C        1.684531491    13.345298871     2.011736374
 C        1.332451130    13.055948665     0.704181771
 C        1.574123359    11.790736158     0.148337695
 C        2.207297229    10.834684780     0.944998078
 C        2.589934445    11.120299705     2.251075075
 C        3.580363667    11.724320838     4.813629709
 C        1.180044889    11.542283393    -1.240315468
 C        1.356531356    10.380178184    -1.882686884
Si        0.880760256    10.024156719    -3.614872123
 C        2.330407008     9.277499864    -4.471949250
 C        3.625498652     9.522131905    -3.997687891
 C        4.728515758     8.962930427    -4.637694846
 C        4.566708380     8.156456587    -5.771835226
 C        3.273553977     7.920286384    -6.246793614
 C        2.166795983     8.475364837    -5.605853241
 C        5.752809251     7.592795329    -6.407997137
 C        5.735580067     6.802889811    -7.495025462
 C        6.921105518     6.238867500    -8.131750309
 C        8.214880476     6.473377184    -7.659000582
 C        9.320605732     5.913691897    -8.299058604
 C        9.154911000     5.099670882    -9.423806603
 C        7.858151209     4.861801990    -9.899284306
 C        6.756984267     5.426562948    -9.261964577
Si       10.603056426     4.353201750   -10.280377128
 C       12.159526651     4.512930865    -9.264408552
 C       10.217659873     2.518145870   -10.609054925
 C       10.872658856     5.223722235   -11.951545473
 C       -0.581660193     8.813190847    -3.697155309
 C        0.382137828    11.619569977    -4.524047479
 C       -3.575781316    13.267338324    -1.576740058
 C       -5.645942612    12.601169349     0.627253763
 C       -0.659517343    -0.892748845    -1.546297033
 C       -0.605044428    -0.931349595     1.545844429
 H        1.231367041     2.711909433     0.363401684
 H        0.300148911     4.953408495     0.356066585
 H       -3.635774803     3.362318730    -0.354539918
 H       -2.744122061     1.099610071    -0.367416999
 H       -3.406656646     5.684634798    -0.174268785
 H       -0.551916867     6.765246599     0.343974253
 H       -4.254793701     7.546464115    -0.179498035
 H       -5.146504672     9.806716309    -0.175185559
 H       -1.115486680    11.343687262     0.454412324
 H       -0.280246521     9.070024888     0.483597530
 H       -2.653714196    14.517962264     1.162219397
 H       -2.415708943    11.765619329     2.628877546
 H       -1.246479009    11.630601520     4.546492771
 H        0.123912232    12.606200167     6.342247108
 H        0.041970612    16.416315043     4.303655810
 H       -1.451112435    15.469950832     2.606293448
 H        1.780596942    16.790534661     7.448662643
 H        0.271972155    17.043506474     6.547630229
 H        1.825626047    16.902038859     5.664101194
 H        3.740348506    12.014133226     5.864292306
 H        4.563590116    11.598297937     4.332960161
 H        3.063095344    10.747218838     4.840970682
 H        1.417981740    14.315145108     2.428102623
 H        0.831426573    13.820848784     0.109365728
 H        2.409056627     9.840343700     0.544020324
 H        3.077785395    10.342195257     2.828547266
 H        0.715838636    12.416944633    -1.715893748
 H        1.817081605     9.516326324    -1.375223547
 H        3.812148640    10.148085444    -3.118809005
 H        5.726900159     9.159049459    -4.251750432
 H        3.120193162     7.297190986    -7.125743831
 H        1.180577164     8.253625761    -6.022962938
 H        6.699447634     7.860943877    -5.929683760
 H        4.788781408     6.535071846    -7.973002560
 H        8.370821263     7.099967991    -6.782732532
 H       10.307670602     6.134694762    -7.883638972
 H        7.667664458     4.233068443   -10.773618753
 H        5.757837381     5.231672357    -9.646910063
 H        2.554537557    14.528919685     7.806669242
 H        1.963601155    13.202126448     6.770595516
 H        3.716389762    15.572967293     5.822434604
 H        4.297228128    13.953782581     6.190364790
 H        2.309737274    14.769175766     3.972375356
 H        4.038001628    14.348856368     3.730263898
 H        2.263569383    -1.029803539    -0.036210122
 H        2.274419024     0.483045248     0.904703444
 H        2.261999405     0.539332411    -0.879640769
 H       13.014173185     4.025649060    -9.766724409
 H       12.038364559     4.033308497    -8.276188722
 H       12.431442133     5.569622280    -9.095681542
 H        9.298279607     2.508342576   -11.264088506
 C       11.339361843     1.779713728   -11.360776123
 C        9.884671878     1.745784555    -9.319740196
 H       11.805139657     4.761940069   -12.387976008
 C        9.723181428     5.010855779   -12.952688115
 C       11.116606100     6.736051020   -11.795766953
 H       -0.697169306     8.554192894    -4.790627827
 C       -0.309182268     7.509733469    -2.928176009
 C       -1.911384887     9.416723333    -3.218319072
 H       -0.440218702    12.083894082    -3.904969290
 C        1.538137675    12.631435630    -4.622500809
 C       -0.174143860    11.366939338    -5.936515297
 H       -3.984603068    14.316657866    -1.520785700
 C       -2.091749504    13.350204354    -1.976430291
 C       -4.346901394    12.511011304    -2.672783244
 H       -6.199268443    12.001058305    -0.151773325
 C       -5.925250439    11.970845399     2.003843703
 C       -6.211417749    14.032857970     0.611890947
 H       -1.784276625    -0.886312668    -1.450006139
 C       -0.294806090    -0.159536866    -2.849870271
 C       -0.203707366    -2.359023315    -1.650802631
 H       -0.091497032    -1.935758879     1.514655105
 C       -0.198373647    -0.227725798     2.853835139
 C       -2.124406533    -1.175805871     1.570640224
 H       11.584027141     2.232322910   -12.330399476
 H       11.030753016     0.745861607   -11.573705138
 H       12.268912402     1.708515310   -10.780600529
 H        9.048450537     2.183726877    -8.755848799
 H       10.738971698     1.664805301    -8.634704940
 H        9.584729172     0.716632369    -9.563253289
 H        9.534559516     3.954553446   -13.182167501
 H        9.965906972     5.493484589   -13.910705852
 H        8.776976761     5.458219760   -12.616906208
 H       11.977514997     6.976244528   -11.158719074
 H       10.244326985     7.269604344   -11.391197567
 H       11.325072358     7.186997602   -12.776583013
 H        0.594930560     6.983252066    -3.261489010
 H       -1.142886014     6.806117970    -3.069686735
 H       -0.228631923     7.665971828    -1.842946637
 H       -2.215837294    10.309784784    -3.777152993
 H       -1.902104102     9.680563153    -2.148598823
 H       -2.722514886     8.684277136    -3.336824069
 H        1.970169001    12.902583767    -3.649694652
 H        1.183981042    13.567275264    -5.076274356
 H        2.361560755    12.274737895    -5.257767597
 H       -1.070972847    10.733886350    -5.944340006
 H        0.563409531    10.911967841    -6.612302449
 H       -0.466975895    12.319071802    -6.401551495
 H       -1.488365735    13.951789081    -1.283105554
 H       -1.990914275    13.820341614    -2.964404088
 H       -1.622178066    12.357196845    -2.052638404
 H       -5.430921185    12.486678439    -2.504963510
 H       -4.005776222    11.472548613    -2.796725751
 H       -4.198830316    13.001507275    -3.645449789
 H       -5.602004207    10.923221228     2.078849793
 H       -7.004505676    11.975777812     2.210293609
 H       -5.450566813    12.521580026     2.829229760
 H       -6.126188245    14.525030290    -0.365064203
 H       -5.740141690    14.686118420     1.359562374
 H       -7.284136693    14.015648264     0.852979883
 H       -0.639237162     0.884463111    -2.871250756
 H       -0.769473059    -0.656580488    -3.707738595
 H        0.784337235    -0.155676076    -3.053097349
 H       -0.493998336    -2.967429635    -0.784601333
 H        0.881515688    -2.461680045    -1.783247044
 H       -0.666018312    -2.833798338    -2.528437391
 H        0.885455692    -0.087500612     2.955590351
 H       -0.512831366    -0.829190304     3.718709383
 H       -0.673579693     0.756494790     2.974468271
 H       -2.490411519    -1.737031473     0.701699347
 H       -2.704726469    -0.245193688     1.641306029
 H       -2.393850645    -1.771318874     2.455152090

