187   

Si        0.000000000     0.000000000     0.000000000
 C        1.865295742     0.000000000     0.000000000
 C       -0.669500819     1.715029664     0.000000000
 C        0.095783841     2.778655301     0.489942005
 C       -0.411910859     4.077426140     0.489655643
 C       -1.696344164     4.342433017     0.007121043
 C       -2.464216699     3.275086939    -0.476948952
 C       -1.960092694     1.977181224    -0.478069299
 C       -2.268293184     5.684721460    -0.012477830
 C       -1.639324261     6.790458435     0.420873188
 C       -2.210872407     8.132923164     0.401466223
 C       -1.441214610     9.199313316     0.886025140
 C       -1.943967194    10.497485288     0.887662545
 C       -3.232758813    10.759550060     0.405233066
 C       -4.002294703     9.697562409    -0.080248024
 C       -3.494021229     8.398880002    -0.083661820
Si       -3.896508816    12.475660527     0.407747581
 C       -5.699820558    12.448849498     0.114560492
 C       -6.359121502    13.185997028    -0.788811523
 C       -7.807814919    13.133468129    -0.991311071
 C       -8.386564005    13.954256469    -1.969463769
 C       -9.752438509    13.942536452    -2.200684514
 C      -10.591054585    13.057452559    -1.489221013
 C      -10.009439437    12.230064483    -0.508650320
 C       -8.645619310    12.290675448    -0.255557167
 N      -11.976075166    13.050527338    -1.728503791
 C      -12.427832912    13.395310409    -3.088321830
 C      -12.750237792    11.948860152    -1.130456725
 C      -11.935468862    12.405811944    -4.159325343
 C      -12.738083245    12.489659741    -5.468025580
 N      -14.186542841    12.200469861    -5.358792936
 C      -14.539303967    11.205685654    -4.418618818
 C      -13.898925594     9.951488949    -4.511867978
 C      -14.208102587     8.942953291    -3.615797765
 C      -15.181854780     9.131783443    -2.622086571
 C      -15.831599385    10.365193177    -2.550425860
 C      -15.528010948    11.391051133    -3.439525937
 C      -15.027056946    13.408553164    -5.383561505
 C      -15.468998625     8.030821025    -1.700603315
 C      -16.374300263     8.092819389    -0.715044980
Si      -16.736062640     6.720338551     0.437975756
 C      -16.466001923     5.072984731    -0.333080806
 C      -16.666455938     4.904078773    -1.709311419
 C      -16.465186126     3.661704920    -2.304460309
 C      -16.073203730     2.555018390    -1.539744184
 C      -15.883061497     2.724447032    -0.165475903
 C      -16.079118681     3.968565945     0.433098431
 C      -15.874954480     1.274105756    -2.209753205
 C      -15.496378190     0.139690075    -1.596900217
 C      -15.298510807    -1.140631117    -2.268325006
 C      -15.488925675    -1.308668733    -3.642206418
 C      -15.288425498    -2.551156284    -4.243403406
 C      -14.900110083    -3.656480216    -3.479980642
 C      -14.710012439    -3.490861376    -2.101182604
 C      -14.904770479    -2.248074533    -1.505042219
Si      -14.631121272    -5.303455054    -4.257005233
 C      -15.265033520    -5.347504772    -6.010859419
 C      -12.770627860    -5.705350349    -4.273086036
 C      -15.525241429    -6.610382041    -3.200744756
 C      -15.627548312     6.915241985     1.972167649
 C      -18.556107933     6.852367783     0.974276170
 C       -3.566264424    13.260303214     2.109936037
 C       -3.007028128    13.500340218    -0.925066594
 C       -0.649369348    -0.917327494    -1.536676668
 C       -0.629677222    -0.908984695     1.548942512
 H        1.107373822     2.633994288     0.879308933
 H        0.205481933     4.887893398     0.872767064
 H       -3.467705883     3.459114028    -0.856250289
 H       -2.606708093     1.185200852    -0.865836698
 H       -3.282726188     5.743966442    -0.417673899
 H       -0.624886233     6.731296085     0.825930397
 H       -0.438819179     9.013211064     1.266411382
 H       -1.299034383    11.289051812     1.279090096
 H       -5.013465120     9.845634408    -0.473336018
 H       -4.111042909     7.589227667    -0.468908609
 H       -6.238182224    11.753974581     0.780742502
 H       -5.855531714    13.893015405    -1.461007369
 H       -7.755232857    14.625525585    -2.552348053
 H      -10.170654510    14.619517370    -2.939296777
 H      -10.618414572    11.540620921     0.067798820
 H       -8.224549519    11.651094500     0.522166159
 H      -13.810303697    12.017370866    -1.434457181
 H      -12.722714666    12.043203697    -0.030158276
 H      -12.387364656    10.947847621    -1.417251511
 H      -14.769025061    14.006772315    -6.275328900
 H      -14.932891977    14.050370965    -4.493978190
 H      -16.085821819    13.112664560    -5.498525693
 H      -13.165327064     9.780873218    -5.296499806
 H      -13.696643761     7.982254287    -3.693938161
 H      -16.596505313    10.534716183    -1.791276333
 H      -16.055380977    12.335579991    -3.352923945
 H      -14.868048983     7.132009326    -1.900046553
 H      -16.956991497     9.008524329    -0.531607943
 H      -16.980545966     5.730710056    -2.355671729
 H      -16.618386826     3.551408541    -3.376491592
 H      -15.579533418     1.881046808     0.451872919
 H      -15.915026873     4.038758944     1.511855147
 H      -16.060166024     1.288791158    -3.287904107
 H      -15.311329124     0.124199237    -0.518837834
 H      -15.796179347    -0.465594327    -4.258330225
 H      -15.450089811    -2.620081014    -5.322727218
 H      -14.407882452    -4.319306569    -1.454132883
 H      -14.750289237    -2.138810287    -0.433242082
 H      -13.541656573    13.432050183    -3.072255162
 H      -12.096449176    14.430361687    -3.325346590
 H      -10.863216530    12.585201889    -4.371817415
 H      -11.975428099    11.373340999    -3.755795538
 H      -12.598265731    13.489047118    -5.933997173
 H      -12.323625230    11.749691924    -6.195798950
 H        2.263765159    -1.028774123    -0.054160593
 H        2.277051421     0.468482552     0.910789954
 H        2.258556063     0.555285048    -0.871189436
 H      -15.138573779    -6.351404623    -6.454232614
 H      -14.731459488    -4.629065846    -6.657490818
 H      -16.341853937    -5.101659183    -6.049360479
 H      -12.677157377    -6.686486221    -4.822737480
 C      -11.946692099    -4.651026299    -5.035092616
 C      -12.162774637    -5.885811494    -2.870617462
 H      -15.060744573    -6.548015590    -2.173665980
 C      -17.030100018    -6.320445142    -3.054538419
 C      -15.339200434    -8.048688482    -3.715724146
 H      -15.934548016     6.097926548     2.686632791
 C      -14.136089747     6.728126922     1.640864977
 C      -15.814217768     8.265619363     2.686845367
 H      -18.668109188     7.866903576     1.454627293
 C      -19.521289877     6.780214710    -0.222578013
 C      -18.960001954     5.786505699     2.007633059
 H       -2.444717962    13.274425996     2.232299484
 C       -4.076566711    14.708091702     2.214764544
 C       -4.159206757    12.433258238     3.264605712
 H       -3.539362417    14.495264073    -0.953944610
 C       -1.523040982    13.765568000    -0.615238303
 C       -3.112083666    12.858865430    -2.321128065
 H       -1.774414218    -0.922174148    -1.443147357
 C       -0.288212509    -0.199264235    -2.849651375
 C       -0.180052553    -2.380924898    -1.621197913
 H       -0.158971941    -1.933708370     1.517107338
 C       -0.192400476    -0.223201897     2.856334673
 C       -2.158712862    -1.085194998     1.571131087
 H      -12.263987497    -4.518652465    -6.077463580
 H      -10.890189361    -4.953006574    -5.071886153
 H      -11.967563852    -3.662932433    -4.553117853
 H      -12.648579678    -6.674794851    -2.282746524
 H      -12.180588851    -4.961393753    -2.276388961
 H      -11.104843700    -6.174399950    -2.954778598
 H      -17.241451269    -5.326186212    -2.635427703
 H      -17.489144309    -7.046403473    -2.368411646
 H      -17.577422009    -6.402808424    -4.002848031
 H      -14.287117231    -8.355656574    -3.777252334
 H      -15.793788686    -8.212704496    -4.701705693
 H      -15.826623129    -8.758358601    -3.031442421
 H      -13.909939991     5.755526591     1.181782947
 H      -13.535388316     6.781054058     2.559774604
 H      -13.745802898     7.508021392     0.970903794
 H      -16.843931139     8.442631518     3.022537765
 H      -15.510062013     9.121678383     2.068293434
 H      -15.187973899     8.301776651     3.590094085
 H      -19.331667765     7.548703112    -0.984259299
 H      -20.555700507     6.931514348     0.117302415
 H      -19.504090129     5.802777379    -0.726286315
 H      -18.376569697     5.836081892     2.935845657
 H      -18.883109402     4.761180549     1.617828583
 H      -20.011540101     5.924118011     2.298803306
 H       -3.631423825    15.381540727     1.471156247
 H       -3.823659216    15.126351209     3.199422174
 H       -5.169449506    14.783992479     2.119942348
 H       -3.805916754    11.392509691     3.280561895
 H       -5.257603415    12.411642820     3.255609240
 H       -3.867170148    12.870623454     4.229883477
 H       -1.363297859    14.298211787     0.330794047
 H       -1.083306139    14.397799401    -1.400348193
 H       -0.920548281    12.846822005    -0.591721380
 H       -4.145849708    12.670818011    -2.642150511
 H       -2.569328439    11.905133097    -2.392635004
 H       -2.669303461    13.522682507    -3.076610647
 H       -0.638558513     0.842246958    -2.885833721
 H       -0.757795292    -0.711257673    -3.701509491
 H        0.791272161    -0.191259450    -3.051035190
 H       -0.466863047    -2.980520716    -0.747678737
 H        0.906238706    -2.475704929    -1.750223673
 H       -0.636466715    -2.871321747    -2.493290294
 H        0.896507904    -0.130587312     2.957333730
 H       -0.532011243    -0.810699036     3.721392108
 H       -0.625597011     0.780193505     2.977364971
 H       -2.543527256    -1.656715438     0.717034444
 H       -2.698449924    -0.128041676     1.606399294
 H       -2.460326760    -1.639921440     2.471456721

