187   

Si        0.000000000     0.000000000     0.000000000
 C        1.865144531     0.000000000     0.000000000
 C       -0.677305686     1.710578929     0.000000000
 C        0.101544002     2.786932018     0.436827209
 C       -0.415522319     4.081869691     0.435256027
 C       -1.715286666     4.331529856    -0.012149147
 C       -2.495195207     3.251852412    -0.447296044
 C       -1.986523229     1.956135506    -0.434620597
 C       -2.296650115     5.668265424    -0.031507704
 C       -1.663625277     6.783679609     0.368912442
 C       -2.254004203     8.116715562     0.345649185
 C       -3.555051019     8.352185288    -0.104327586
 C       -4.085896301     9.641681877    -0.111835113
 C       -3.341615290    10.714093633     0.385188207
 C       -2.039385702    10.480234405     0.849311619
 C       -1.498182270     9.198981092     0.814673125
Si       -3.995786510    12.431923702     0.397683811
 C       -3.423652273    13.300897939     1.901910112
 C       -3.174461032    12.671950907     3.059401118
 C       -2.716378858    13.340168070     4.277495459
 C       -2.488075364    12.575807745     5.431771310
 C       -2.053995879    13.168091514     6.606443509
 C       -1.888260316    14.567494410     6.683468818
 C       -2.121000055    15.333938960     5.526509921
 C       -2.504378631    14.718775383     4.341651684
 N       -1.446349553    15.164756627     7.881140353
 C       -1.854435496    14.515879959     9.139353484
 C       -1.515513140    16.634524184     7.953921331
 C       -3.378716726    14.387223575     9.303988845
 C       -3.777195152    13.889001614    10.703251233
 N       -3.148345084    12.627330724    11.141210476
 C       -3.087921481    11.600577470    10.169129609
 C       -4.286558701    11.211440961     9.537449164
 C       -4.276420636    10.210631856     8.579422538
 C       -3.085449414     9.556234721     8.228441135
 C       -1.904086664     9.935436869     8.869606982
 C       -1.897427829    10.936698371     9.834448302
 C       -1.946064709    12.820693162    11.967292205
 C       -3.124702503     8.504012787     7.209591482
 C       -2.045376781     7.821134133     6.805313673
Si       -2.027513020     6.500572139     5.542246374
 C       -3.313099111     6.686383827     4.243692176
 C       -3.863483145     7.937791006     3.950061599
 C       -4.838404728     8.063702191     2.961948404
 C       -5.282003156     6.947237202     2.247791302
 C       -4.722584647     5.696449953     2.538094914
 C       -3.743364317     5.567176510     3.519152193
 C       -6.300085071     7.034408778     1.205945760
 C       -6.908907820     8.174128948     0.838038391
 C       -7.927412724     8.285117613    -0.198661513
 C       -8.383207650     7.187159442    -0.931808502
 C       -9.360563809     7.343883805    -1.914844046
 C       -9.901004240     8.604607390    -2.185806492
 C       -9.442303224     9.708421699    -1.453551430
 C       -8.466391375     9.548892741    -0.475106464
Si      -11.190798756     8.834981739    -3.477627900
 C      -11.876510379     7.203909420    -4.067411928
 C      -12.581366990     9.908354509    -2.744517329
 C      -10.433109787     9.754824799    -4.962569829
 C       -0.334129991     6.556912707     4.674262124
 C       -2.223619470     4.818124176     6.406366607
 C       -3.383457185    13.338316210    -1.153957332
 C       -5.900797284    12.414732571     0.410180688
 C       -0.653110731    -0.924895248    -1.529543482
 C       -0.624623470    -0.892194406     1.561766546
 H        1.128933544     2.654597971     0.786664734
 H        0.212348726     4.903212508     0.776848424
 H       -3.510735644     3.425421999    -0.798061717
 H       -2.642584586     1.152938039    -0.780181579
 H       -3.324397351     5.716941258    -0.404175220
 H       -0.639273101     6.741119783     0.749969564
 H       -4.169087393     7.526590564    -0.463148250
 H       -5.099199276     9.763879224    -0.506523406
 H       -1.411462222    11.284184675     1.248229018
 H       -0.478757654     9.038185895     1.160175505
 H       -3.310600706    14.388851092     1.801159930
 H       -3.286235686    11.583707431     3.182094540
 H       -2.639387932    11.494156058     5.406106138
 H       -1.852931511    12.539803164     7.472894917
 H       -1.996265090    16.411270211     5.537356987
 H       -2.658100671    15.334717675     3.454793200
 H       -1.145029932    16.980349131     8.933145504
 H       -2.530441196    17.036481933     7.804827492
 H       -0.842259470    17.066030876     7.190537703
 H       -2.193797098    13.488433917    12.810781129
 H       -1.083081948    13.242473899    11.429996862
 H       -1.649112453    11.851420505    12.408212824
 H       -5.219742530    11.698909143     9.807695180
 H       -5.210921103     9.927018261     8.093697075
 H       -0.963490216     9.445078305     8.614358284
 H       -0.958044122    11.205590536    10.307017343
 H       -4.129023009     8.328285032     6.801654767
 H       -1.054918337     8.018154734     7.247718749
 H       -3.547638695     8.848903809     4.468754400
 H       -5.243942580     9.050599494     2.742918441
 H       -5.047870372     4.815275353     1.989082443
 H       -3.333883060     4.567565324     3.691680536
 H       -6.549720291     6.085275157     0.724499587
 H       -6.657084286     9.119725259     1.331525162
 H       -7.978909352     6.195337198    -0.739141189
 H       -9.681081903     6.448674320    -2.454162258
 H       -9.829464277    10.717296707    -1.621850973
 H       -8.121081814    10.418523007     0.083717379
 H       -1.377270565    13.506726358     9.170143658
 H       -1.419588940    15.087084259     9.988865960
 H       -3.867447270    15.359181286     9.107630697
 H       -3.777082203    13.697495298     8.529979567
 H       -3.568812455    14.676099626    11.460668595
 H       -4.881991791    13.724005645    10.729602513
 H        2.262673566    -1.029356433    -0.051070694
 H        2.276521758     0.470817974     0.909766358
 H        2.259366022     0.552240255    -0.872678547
 H      -12.674549794     7.354874135    -4.816217505
 H      -12.312607412     6.631019944    -3.228956395
 H      -11.096541447     6.577348154    -4.534503013
 H      -12.098846788    10.889323326    -2.462877832
 C      -13.714580656    10.209745104    -3.741170084
 C      -13.185337374     9.297564261    -1.467091658
 H      -11.255296248     9.820273169    -5.732421762
 C       -9.972416150    11.186469892    -4.634592592
 C       -9.252145864     8.989883223    -5.587877922
 H        0.442796881     6.456060323     5.484293518
 C       -0.135896204     5.406677468     3.673390419
 C       -0.110873263     7.898393375     3.954175308
 H       -2.088516581     4.036134719     5.603559214
 C       -1.164860920     4.566979162     7.494563361
 C       -3.624511333     4.637300013     7.017256603
 H       -3.807222958    14.381991542    -1.096383966
 C       -1.848948326    13.450096490    -1.201716150
 C       -3.879130106    12.689580377    -2.458529068
 H       -6.211606561    11.676807414    -0.385288888
 C       -6.463202311    11.941746545     1.763132858
 C       -6.533422981    13.773665178     0.061608549
 H       -1.777815503    -0.930589479    -1.432569468
 C       -0.297922626    -0.211091256    -2.846466275
 C       -0.181788662    -2.387981331    -1.609062997
 H       -0.136104294    -1.908681953     1.553820108
 C       -0.209547151    -0.170760322     2.857493213
 C       -2.150432048    -1.095114451     1.578532769
 H      -13.369171761    10.713176249    -4.653374129
 H      -14.451409242    10.882943781    -3.279128734
 H      -14.268458633     9.311330752    -4.044217058
 H      -12.438879463     9.107849295    -0.682400655
 H      -13.717639390     8.355068872    -1.651667766
 H      -13.921029284     9.987779918    -1.030115792
 H      -10.775296170    11.824774843    -4.244814404
 H       -9.605451628    11.679713782    -5.546635260
 H       -9.139898508    11.212272248    -3.917129112
 H       -9.516086125     7.979747818    -5.926471665
 H       -8.393842626     8.898569750    -4.906516110
 H       -8.884477259     9.524564991    -6.475505445
 H       -0.171171937     4.412862174     4.137894193
 H        0.851653699     5.487159537     3.197582180
 H       -0.875771847     5.415594005     2.857084359
 H       -0.158224804     8.767388747     4.625328734
 H       -0.835487564     8.069686743     3.142077410
 H        0.885433355     7.919423188     3.492220612
 H       -0.134711808     4.611716204     7.118979070
 H       -1.293161364     3.560367344     7.917992289
 H       -1.245305244     5.266255907     8.338424877
 H       -4.435991389     4.740670481     6.283020668
 H       -3.828729489     5.341066524     7.836679027
 H       -3.723386260     3.629627237     7.444598989
 H       -1.421024447    13.956022499    -0.325594879
 H       -1.540375299    14.036722216    -2.078442796
 H       -1.352968577    12.473075470    -1.296501497
 H       -4.973307225    12.642575555    -2.535378201
 H       -3.491451436    11.670299948    -2.602779735
 H       -3.534225236    13.272720446    -3.324177764
 H       -6.086796300    10.957801866     2.074927251
 H       -7.558081207    11.861563639     1.715109815
 H       -6.245417303    12.644306625     2.581767348
 H       -6.253798821    14.140839020    -0.934133770
 H       -6.288617918    14.560133968     0.787809701
 H       -7.629788244    13.689263206     0.059764764
 H       -0.651636748     0.829210659    -2.885631541
 H       -0.768877977    -0.727797812    -3.694767010
 H        0.780857907    -0.200686481    -3.051566145
 H       -0.462130677    -2.983395211    -0.730554820
 H        0.903904857    -2.481656936    -1.744135247
 H       -0.642524153    -2.883919539    -2.475779176
 H        0.876772836    -0.055302356     2.963199885
 H       -0.542907323    -0.747277058     3.732280154
 H       -0.662953788     0.826623900     2.954092633
 H       -2.520127108    -1.687579167     0.732076827
 H       -2.707057942    -0.147263064     1.595249414
 H       -2.446993143    -1.640542082     2.486244184

