187   

Si        0.000000000     0.000000000     0.000000000
 C        1.865164274     0.000000000     0.000000000
 C       -0.674952191     1.712928582     0.000000000
 C        0.117367716     2.795554742    -0.395464483
 C       -0.399217244     4.090969429    -0.393469997
 C       -1.718664641     4.333536946    -0.002517485
 C       -2.512893853     3.247243470     0.388249584
 C       -1.999982917     1.952915814     0.387640307
 C       -2.300564305     5.671643140     0.014968336
 C       -1.647919179     6.793130571    -0.334642960
 C       -2.226725992     8.132365488    -0.318287149
 C       -3.545588443     8.379510823     0.071902416
 C       -4.057743167     9.676793312     0.072246675
 C       -3.264156333    10.753838084    -0.334068026
 C       -1.941886869    10.508974014    -0.728912063
 C       -1.430065797     9.214579061    -0.715780901
Si       -3.906074805    12.477129387    -0.346428127
 C       -3.229688840    13.433281824    -1.752271287
 C       -2.881861663    12.885450169    -2.924226751
 C       -2.339589289    13.637385398    -4.057639710
 C       -2.015006003    12.939663307    -5.231834175
 C       -1.499131854    13.601212653    -6.333301765
 C       -1.326604950    15.000354308    -6.302691412
 C       -1.646634887    15.700879756    -5.130621310
 C       -2.127037928    15.016898453    -4.018297649
 N       -0.793623806    15.612943992    -7.464699578
 C       -1.609487743    15.458004038    -8.685912782
 C       -0.241150853    16.964185393    -7.288450673
 C       -2.694363407    16.522657845    -8.925222080
 C       -3.834747932    16.522348456    -7.890010458
 N       -4.823772662    15.441782477    -8.028539495
 C       -5.392561842    15.227150877    -9.289900295
 C       -5.657928778    16.329766512   -10.133010026
 C       -6.220094577    16.136081308   -11.383587948
 C       -6.586085290    14.856155937   -11.825280838
 C       -6.350691693    13.770391451   -10.977512420
 C       -5.770092923    13.942520022    -9.728094348
 C       -4.569941741    14.266009951    -7.186658959
 C       -7.176248046    14.708165300   -13.156005018
 C       -7.562845492    13.537471611   -13.681093202
Si       -8.300758517    13.341671924   -15.341497826
 C       -7.699405584    14.613351516   -16.527152020
 C       -6.406152237    15.132785915   -16.396965776
 C       -5.936612726    16.096758234   -17.287695131
 C       -6.740953168    16.552354079   -18.336115625
 C       -8.031494762    16.024125257   -18.470412020
 C       -8.505602953    15.064769328   -17.579022750
 C       -6.292051914    17.559310141   -19.291981359
 C       -5.082356883    18.144426039   -19.275680628
 C       -4.633552226    19.151369818   -20.231589609
 C       -5.439070997    19.610903118   -21.276610797
 C       -4.969540604    20.575335789   -22.168258090
 C       -3.683824336    21.107233480   -22.028802784
 C       -2.874071099    20.648652785   -20.980713059
 C       -3.343237990    19.681562735   -20.096240336
Si       -3.049293234    22.380524360   -23.197002349
 C       -4.416465352    23.086922973   -24.251340317
 C       -2.220911471    23.761559192   -22.181921472
 C       -1.740985425    21.599100182   -24.337654197
 C       -7.830806797    11.620989202   -16.003472580
 C      -10.194806038    13.438656739   -15.185680288
 C       -5.804216330    12.479766761    -0.471993859
 C       -3.397224476    13.336022902     1.272002223
 C       -0.622534168    -0.914952255    -1.548376454
 C       -0.652807671    -0.911413909     1.538714784
 H        1.156785940     2.668835673    -0.710836332
 H        0.239648718     4.916516577    -0.702048822
 H       -3.543529173     3.413899545     0.695775733
 H       -2.667271401     1.145426949     0.701661749
 H       -3.343284216     5.713194078     0.342918831
 H       -0.604856980     6.750243007    -0.662205503
 H       -4.185931030     7.556700995     0.384069081
 H       -5.093811523     9.808102610     0.395918189
 H       -1.275471061    11.314520160    -1.055852477
 H       -0.399507614     9.043833903    -1.021804086
 H       -3.140876443    14.515568735    -1.575763403
 H       -2.970011628    11.807632064    -3.124500285
 H       -2.155050244    11.858410941    -5.273099950
 H       -1.210085758    13.044712162    -7.222894894
 H       -1.516370834    16.777327271    -5.076123478
 H       -2.354904441    15.577602760    -3.110941962
 H        0.286807440    17.256414346    -8.213230513
 H        0.510007412    16.943559119    -6.478312084
 H       -0.989425312    17.737324130    -7.054479877
 H       -4.175380402    14.580612944    -6.202415796
 H       -3.852426939    13.553474100    -7.625478709
 H       -5.525018395    13.743498734    -6.993686287
 H       -5.423392431    17.336633530    -9.801225609
 H       -6.396374887    16.998612926   -12.027883424
 H       -6.625691521    12.763966089   -11.296571402
 H       -5.599392547    13.071182150    -9.104562067
 H       -7.269633047    15.660961721   -13.696367443
 H       -7.469195452    12.599674570   -13.112557392
 H       -5.728694530    14.808886157   -15.599354405
 H       -4.930162347    16.491096849   -17.160430644
 H       -8.673561608    16.364725528   -19.280284529
 H       -9.520785879    14.689713964   -17.734162161
 H       -7.027626036    17.823502872   -20.057381185
 H       -4.346485832    17.879684086   -18.510736997
 H       -6.445412765    19.216369418   -21.404571241
 H       -5.645372780    20.893998787   -22.966655469
 H       -1.860832385    21.028638108   -20.822231796
 H       -2.698931733    19.336376163   -19.289897847
 H       -0.893988660    15.470134899    -9.543628031
 H       -2.075787973    14.447365446    -8.689536360
 H       -2.236840878    17.529248103    -8.954595136
 H       -3.114497275    16.366912583    -9.941781918
 H       -3.412989669    16.492325428    -6.859201722
 H       -4.392040163    17.488285783    -7.957888624
 H        2.262975860    -1.029051502     0.056845089
 H        2.260191360     0.557167457     0.869083684
 H        2.276075626     0.464962721    -0.913097659
 H       -4.034502486    23.878933185   -24.920041347
 H       -5.208753769    23.535460191   -23.624837760
 H       -4.884976393    22.314075112   -24.885504322
 H       -1.383521172    23.265325645   -21.610180377
 C       -1.605150845    24.875024402   -23.047725407
 C       -3.179504738    24.394716339   -21.157137141
 H       -1.441245727    22.413018004   -25.059434767
 C       -0.475929210    21.130023881   -23.596966583
 C       -2.299796256    20.419229860   -25.153935069
 H       -8.231355299    10.878555237   -15.254481127
 C       -8.459506816    11.306182577   -17.371965421
 C       -6.306267144    11.429968384   -16.097579505
 H      -10.605086514    13.242524364   -16.217988955
 C      -10.779345311    12.379771226   -14.233873883
 C      -10.671888841    14.831458659   -14.736621161
 H       -6.178322922    11.906944618     0.425172037
 C       -6.413720805    13.892109027    -0.420896985
 C       -6.306100144    11.767108886    -1.740747347
 H       -3.818733811    14.381110412     1.217104514
 C       -3.974053909    12.652484212     2.523808294
 C       -1.868950410    13.444261294     1.420031719
 H       -0.143174316    -1.935772672    -1.514928343
 C       -2.149763221    -1.105389876    -1.573236079
 C       -0.189508462    -0.226933072    -2.855939034
 H       -1.777491602    -0.917159554     1.441738242
 C       -0.181979394    -2.373801972     1.631534557
 C       -0.296735287    -0.185865500     2.848939030
 H       -0.854839339    24.507615884   -23.759696880
 H       -1.089334767    25.605821121   -22.407837276
 H       -2.355889786    25.440783499   -23.615211163
 H       -3.618112399    23.662800417   -20.463762126
 H       -4.007258858    24.943575167   -21.625400592
 H       -2.639175655    25.121864251   -20.534344283
 H        0.032520616    21.933632611   -23.049454238
 H        0.257211712    20.739215844   -24.317693148
 H       -0.674477296    20.312082557   -22.890089792
 H       -3.160382444    20.689489258   -25.779235528
 H       -2.599858145    19.568792101   -24.524783735
 H       -1.530014298    20.037462244   -25.839875966
 H       -9.556639828    11.329242406   -17.363183109
 H       -8.176762441    10.292746295   -17.691647644
 H       -8.116557743    11.983953076   -18.166855410
 H       -5.786919520    11.586238814   -15.142167485
 H       -5.838558230    12.091122629   -16.841342520
 H       -6.073471449    10.402504876   -16.410925109
 H      -10.546475455    11.349553949   -14.531276087
 H      -11.876306461    12.453682549   -14.218400388
 H      -10.448851830    12.512134236   -13.193843669
 H      -10.345213555    15.641133545   -15.403827650
 H      -10.340784999    15.088627193   -13.719700867
 H      -11.770105051    14.868402188   -14.721816640
 H       -6.163861853    14.442701782     0.494963381
 H       -7.511313440    13.828137801    -0.449000603
 H       -6.121838125    14.514956319    -1.278066947
 H       -5.960536056    10.727496598    -1.824764764
 H       -6.015884964    12.286823393    -2.665644342
 H       -7.404545702    11.726891654    -1.741532885
 H       -5.071026366    12.620982120     2.537232528
 H       -3.672142469    13.203714502     3.426337827
 H       -3.608258416    11.624199135     2.657688357
 H       -1.385297235    13.971901779     0.586816272
 H       -1.379591040    12.464720765     1.522088490
 H       -1.617385821    14.008274927     2.329552990
 H       -2.531342204    -1.677981054    -0.718420372
 H       -2.443623760    -1.666004503    -2.472625142
 H       -2.698402635    -0.153704685    -1.613840246
 H        0.898683025    -0.124539373    -2.955729796
 H       -0.631165797     0.772442288    -2.979045665
 H       -0.522469886    -0.818448877    -3.720879475
 H       -0.461838827    -2.977174237     0.758363866
 H       -0.643571481    -2.861840398     2.502333332
 H        0.903596075    -2.466510052     1.768275249
 H       -0.651239975     0.854397062     2.879383613
 H        0.782186697    -0.173128627     3.053031848
 H       -0.766748160    -0.695563327     3.702054294

