187   

Si        0.000000000     0.000000000     0.000000000
 C        1.865652267     0.000000000     0.000000000
 C       -0.656847373     1.717850464     0.000000000
 C        0.076047725     2.728867298     0.630447797
 C       -0.398080932     4.037884720     0.645312480
 C       -1.603992591     4.371757085     0.023857636
 C       -2.337300761     3.358668556    -0.605412715
 C       -1.873315175     2.044733080    -0.611336296
 C       -2.118110250     5.737137777     0.028082322
 C       -1.485698300     6.765035385     0.618746918
 C       -1.957670330     8.142654485     0.649952458
 C       -3.151483804     8.551512424     0.051972510
 C       -3.556141851     9.885677541     0.112405811
 C       -2.789678658    10.827503651     0.803371838
 C       -1.595963995    10.416956954     1.414516230
 C       -1.184035397     9.091635742     1.332244653
Si       -3.259241364    12.600202855     0.925634466
 C       -2.969454682    13.200131671     2.629478145
 C       -3.055493011    12.415211241     3.712610416
 C       -2.827529785    12.875648901     5.083072755
 C       -2.946068415    11.961279918     6.137904203
 C       -2.739135866    12.351829809     7.453713229
 C       -2.333717157    13.667342190     7.748907685
 C       -2.202325518    14.585041157     6.686799485
 C       -2.468112766    14.193698985     5.383247887
 N       -2.109738952    14.115962227     9.065680344
 C       -2.241001626    13.153872784    10.167291851
 C       -0.989056089    15.057244954     9.241411062
 C       -1.092653790    12.135402414    10.275208170
 C       -1.322279067    11.154021976    11.437885330
 N       -2.298072799    10.089367157    11.172930051
 C       -2.026350092     9.144584531    10.178019708
 C       -0.704448664     8.920770471     9.735452435
 C       -0.444614660     7.982679158     8.749227663
 C       -1.469957288     7.200415264     8.199794768
 C       -2.774714539     7.405407660     8.657239893
 C       -3.058065668     8.355277725     9.628880869
 C       -3.701406197    10.465877958    11.391225203
 C       -1.138627480     6.224875811     7.160766758
 C       -2.032077481     5.423971940     6.563884934
Si       -1.609168488     4.207552646     5.266153853
 C       -0.160945691     4.766722916     4.279724515
 C       -0.022907659     6.127127869     3.971396521
 C        1.064622345     6.573826631     3.226253069
 C        2.041639490     5.676185021     2.775460400
 C        1.901481267     4.320556650     3.084242807
 C        0.810498368     3.869196190     3.826685566
 C        3.162681349     6.192005024     1.998038380
 C        4.159390104     5.437186114     1.505689952
 C        5.281975540     5.949725617     0.727851473
 C        5.426811932     7.303948434     0.416407924
 C        6.516489400     7.751468990    -0.330435864
 C        7.482383797     6.850347851    -0.788925265
 C        7.338239592     5.490850857    -0.479655947
 C        6.252449563     5.048166266     0.270415850
Si        8.927064809     7.423126589    -1.775860834
 C        8.713114509     9.186184369    -2.346207595
 C       10.505802504     7.311249375    -0.718409100
 C        9.114862799     6.264670579    -3.274601690
 C       -1.246877814     2.517377005     6.061188559
 C       -3.111835006     4.013952087     4.115359398
 C       -2.198752820    13.618469972    -0.280203134
 C       -5.092349960    12.845537346     0.481293224
 C       -0.672111072    -0.956965012    -1.497337595
 C       -0.623090270    -0.832225313     1.598139920
 H        1.032377098     2.537154839     1.126657510
 H        0.190444159     4.806784237     1.150501471
 H       -3.279916245     3.596270088    -1.093419704
 H       -2.489483718     1.294093278    -1.111933363
 H       -3.068200169     5.879992618    -0.490564386
 H       -0.531107844     6.601844402     1.136214705
 H       -3.772091706     7.831062030    -0.476389547
 H       -4.489170836    10.153254905    -0.389558531
 H       -0.960469212    11.112332878     1.973864632
 H       -0.251901761     8.789415147     1.806707786
 H       -2.735433165    14.271056280     2.712511135
 H       -3.294871546    11.343096362     3.652433749
 H       -3.215349106    10.923808941     5.929453639
 H       -2.868413608    11.616207575     8.242809414
 H       -1.914153108    15.612693792     6.885528304
 H       -2.380767979    14.928594583     4.582158320
 H       -0.810459508    15.248565360    10.311674021
 H       -1.254310665    16.026835432     8.782543123
 H       -0.050063755    14.699258727     8.788715649
 H       -3.777799615    11.295645409    12.112051754
 H       -4.238015108     9.605187589    11.834593948
 H       -4.221332068    10.761985321    10.463235774
 H        0.120507555     9.488191216    10.153810840
 H        0.581250844     7.846192300     8.403305475
 H       -3.592726244     6.812377837     8.245127470
 H       -4.085216221     8.479254521     9.953850969
 H       -0.070020402     6.216655843     6.902379989
 H       -3.095460852     5.446143112     6.844645804
 H       -0.755708462     6.873493227     4.300320553
 H        1.163997580     7.635168530     3.005870248
 H        2.648920569     3.603771194     2.750375377
 H        0.750940473     2.796332512     4.031164276
 H        3.146368563     7.272584871     1.829129228
 H        4.174382787     4.355924480     1.671589299
 H        4.684788969     8.024886344     0.755436551
 H        6.576211291     8.822727798    -0.541710328
 H        8.060843250     4.740691646    -0.813085310
 H        6.157428270     3.988590242     0.500114865
 H       -2.323598735    13.737892078    11.113321847
 H       -3.218572355    12.631809534    10.049947393
 H       -0.980239225    11.580215988     9.321470399
 H       -0.131858504    12.662746905    10.417846434
 H       -0.354932668    10.668374608    11.714353888
 H       -1.642137271    11.705702740    12.351074118
 H        2.262665704    -1.028560328    -0.058284848
 H        2.278821993     0.466616801     0.911058214
 H        2.258500076     0.557854147    -0.870129078
 H        9.560046458     9.505099877    -2.979686216
 H        8.651758699     9.887072206    -1.495358752
 H        7.790715550     9.299647140    -2.944451735
 H       11.330669306     7.742183892    -1.356426540
 C       10.411624351     8.149381779     0.569987720
 C       10.898139665     5.871488767    -0.341439028
 H        9.280909991     5.232452837    -2.848643538
 C        7.844826541     6.216001209    -4.143170129
 C       10.320957477     6.605578335    -4.167724054
 H       -1.003831238     1.818519808     5.208051614
 C       -0.033663688     2.558191648     7.007325469
 C       -2.451405316     1.932235495     6.819636291
 H       -3.979381112     3.748809570     4.786298887
 C       -3.456976841     5.320836230     3.381162001
 C       -2.948174858     2.887102300     3.082317613
 H       -2.533643710    14.689143309    -0.159796367
 C       -0.696628996    13.549930583     0.049485262
 C       -2.405336660    13.214654673    -1.750608415
 H       -5.220718942    12.422412581    -0.556705798
 C       -6.031745818    12.080806665     1.431568391
 C       -5.518132908    14.324344563     0.446907157
 H       -1.797143356    -0.928064652    -1.406561078
 C       -0.289229428    -0.302216086    -2.837123093
 C       -0.243429862    -2.435422768    -1.522983981
 H       -0.176641411    -1.866871754     1.604800382
 C       -0.154072246    -0.097350797     2.868454668
 C       -2.155521662    -0.968703971     1.648685339
 H       10.215619619     9.213415694     0.385254586
 H       11.362428088     8.103361006     1.120044297
 H        9.638554139     7.784090846     1.261341040
 H       11.057692765     5.220822899    -1.210483919
 H       10.160573307     5.386419827     0.313274800
 H       11.846045989     5.874949242     0.216345579
 H        6.946060056     5.922560979    -3.581665136
 H        7.963102812     5.471299262    -4.943094894
 H        7.626879269     7.170788625    -4.639726996
 H       11.277855975     6.592504077    -3.630155265
 H       10.226881018     7.582788518    -4.659600530
 H       10.411720288     5.863686660    -4.974464204
 H        0.886732224     2.914080037     6.524761972
 H        0.185680442     1.550079079     7.385344879
 H       -0.204962284     3.188325675     7.892173165
 H       -3.337398718     1.792072124     6.186842332
 H       -2.749559145     2.541740726     7.683804935
 H       -2.198931031     0.939272439     7.218136349
 H       -3.616517514     6.176147048     4.050645794
 H       -4.387086056     5.198406006     2.808975238
 H       -2.688686539     5.612586467     2.647373531
 H       -2.792370676     1.897994455     3.529475659
 H       -2.122670754     3.067871516     2.374347679
 H       -3.854256929     2.807049371     2.464942177
 H       -0.459597554    13.867306640     1.073971954
 H       -0.133673924    14.217129809    -0.618460843
 H       -0.274494690    12.544977262    -0.094670686
 H       -3.443074766    13.323461545    -2.090988585
 H       -2.092797965    12.181165070    -1.958588850
 H       -1.798342417    13.855370627    -2.406376478
 H       -5.825924729    11.002659345     1.478829158
 H       -7.073105114    12.181566089     1.095767383
 H       -6.000335709    12.466074207     2.461479424
 H       -4.954031486    14.923112001    -0.279436801
 H       -5.434156627    14.816386434     1.425948171
 H       -6.574979626    14.403980705     0.153937048
 H       -0.604674393     0.748233012    -2.914310998
 H       -0.775545605    -0.831371771    -3.668790375
 H        0.789939666    -0.337362678    -3.038041025
 H       -0.548857769    -2.992120032    -0.627670643
 H        0.840006348    -2.565687664    -1.644619911
 H       -0.711443189    -2.946921764    -2.376646655
 H        0.937818670    -0.035847340     2.957370967
 H       -0.505972681    -0.630565081     3.762993274
 H       -0.556622828     0.924824791     2.939828167
 H       -2.568035706    -1.558368900     0.820565767
 H       -2.669926370     0.003563516     1.656387255
 H       -2.457770303    -1.484794070     2.571183300

