187   

Si        0.000000000     0.000000000     0.000000000
 C        1.865391673     0.000000000     0.000000000
 C       -0.676286483     1.711968040     0.000000000
 C        0.134854955     2.807996808    -0.310526226
 C       -0.387921958     4.101066764    -0.307538642
 C       -1.732446623     4.327813849    -0.002095395
 C       -2.545020647     3.227986215     0.304388293
 C       -2.025648863     1.936407932     0.305046672
 C       -2.322038832     5.662427037     0.013161977
 C       -1.654296323     6.796623965    -0.258333628
 C       -2.242410937     8.131967886    -0.243506087
 C       -3.587307046     8.359542575     0.061948041
 C       -4.108229048     9.652929018     0.064453768
 C       -3.288716234    10.748066299    -0.226315066
 C       -1.940015178    10.524319876    -0.532115896
 C       -1.426540119     9.230277682    -0.545480712
Si       -3.954913962    12.463417801    -0.228724752
 C       -2.580702283    13.626462284     0.084108205
 C       -2.281569335    14.718450507    -0.630452590
 C       -1.157834017    15.606488664    -0.315839726
 C       -0.930128965    16.726623272    -1.129326910
 C        0.120717308    17.592956777    -0.868613681
 C        0.980862087    17.344262245     0.213384135
 C        0.761608312    16.230561445     1.030771740
 C       -0.305523186    15.377688963     0.767029681
 N        2.041947531    18.288382684     0.413751149
 C        3.179828772    18.033568491    -0.496185418
 C        2.455975412    18.450795222     1.819096318
 C        3.982254492    16.754192209    -0.182762688
 C        4.733588459    16.223695327    -1.418474689
 N        4.061888605    15.110266334    -2.119606456
 C        2.831364679    15.420266212    -2.742831389
 C        2.759552212    16.566951523    -3.561080880
 C        1.571591554    16.903670490    -4.188688078
 C        0.443403222    16.076747087    -4.092663067
 C        0.530096465    14.918922557    -3.315062041
 C        1.703668149    14.587410161    -2.649037406
 C        4.103466200    13.855002103    -1.349162618
 C       -0.786409352    16.480740261    -4.775822776
 C       -1.921339019    15.770741112    -4.752771938
Si       -3.485824161    16.219696919    -5.582627017
 C       -4.813750239    16.070895477    -4.316511683
 C       -4.576641525    16.585747319    -3.033920107
 C       -5.552237600    16.494999118    -2.046350146
 C       -6.791724579    15.899784089    -2.318165305
 C       -7.026644815    15.392055897    -3.598403428
 C       -6.047485620    15.474922046    -4.588813308
 C       -7.780842216    15.829100192    -1.249087309
 C       -9.002248774    15.281759528    -1.366583361
 C       -9.984207859    15.216616805    -0.289525478
 C       -9.735658068    15.728727423     0.986632362
 C      -10.702093616    15.646052200     1.988657545
 C      -11.936538092    15.039013403     1.737796719
 C      -12.186891214    14.521933729     0.459415702
 C      -11.222953549    14.612041069    -0.540859409
Si      -13.223269494    14.921411275     3.048935658
 C      -12.537584748    15.368184219     4.725238678
 C      -14.659065954    16.103157467     2.643437507
 C      -13.889673909    13.138384451     3.064223819
 C       -3.446672098    18.010768301    -6.220663192
 C       -3.776951699    15.064825951    -7.062983960
 C       -4.760879288    12.803442409    -1.913554704
 C       -5.259910247    12.654168914     1.139283746
 C       -0.614810215    -0.920824227    -1.548316456
 C       -0.656912768    -0.905444962     1.540393049
 H        1.193583139     2.693769404    -0.558939519
 H        0.266200718     4.937338347    -0.547475717
 H       -3.595113133     3.382355287     0.545320808
 H       -2.707488972     1.118462617     0.554157667
 H       -3.385209970     5.690396623     0.269114642
 H       -0.591205997     6.768560338    -0.514858055
 H       -4.242143977     7.523342286     0.299177181
 H       -5.168911987     9.769266801     0.303765819
 H       -1.255102103    11.345245335    -0.770653248
 H       -0.378134014     9.073127992    -0.790813217
 H       -1.984301105    13.349755707     0.970568134
 H       -2.855005891    15.032503183    -1.513432068
 H       -1.577951369    16.917631079    -1.986799365
 H        0.291394958    18.465317500    -1.497733815
 H        1.416302720    16.026637630     1.872445318
 H       -0.464856351    14.516364686     1.416534280
 H        3.126977753    19.324454615     1.885567280
 H        2.972343111    17.582311514     2.253347497
 H        1.564777225    18.672226196     2.432328303
 H        5.132104569    13.679367846    -0.991259333
 H        3.848251001    13.012598627    -2.017491409
 H        3.425649467    13.837870156    -0.480479220
 H        3.638297577    17.191298061    -3.698808467
 H        1.525805037    17.813942641    -4.786757391
 H       -0.336933397    14.262279520    -3.211887877
 H        1.720055148    13.691640621    -2.035308090
 H       -0.688753321    17.430774896    -5.316647024
 H       -1.980732353    14.811909646    -4.208404740
 H       -3.629144995    17.067662951    -2.768117945
 H       -5.347667282    16.891394622    -1.052448963
 H       -7.980870129    14.925637251    -3.834265294
 H       -6.288638295    15.061971589    -5.571480991
 H       -7.463664774    16.281301639    -0.303334592
 H       -9.327277566    14.838812178    -2.312061941
 H       -8.780852956    16.201764914     1.209994823
 H      -10.451322564    16.067480407     2.966209936
 H      -13.133305083    14.035694477     0.206260084
 H      -11.436821480    14.206552478    -1.527869691
 H        2.768856295    17.986236583    -1.532510252
 H        3.843661517    18.924358046    -0.460159321
 H        4.695411849    16.951296304     0.636494272
 H        3.296976378    15.972523359     0.201526890
 H        4.916867424    17.041810193    -2.149910663
 H        5.745819436    15.864793430    -1.120436327
 H        2.263154812    -1.029490442     0.047036895
 H        2.260920470     0.548881571     0.873987820
 H        2.275234695     0.473438364    -0.909273618
 H      -13.305485156    15.256499816     5.511587616
 H      -12.179672908    16.412238403     4.756250838
 H      -11.689883345    14.712129744     4.994398242
 H      -15.370883764    16.026125540     3.515761398
 C      -14.201885969    17.568920989     2.528236093
 C      -15.430455671    15.726063876     1.366126579
 H      -14.323617424    12.962198196     2.037110825
 C      -12.778764364    12.096770161     3.290221306
 C      -15.009455309    12.909601471     4.094748402
 H       -2.555494547    18.073655790    -6.910388107
 C       -4.700751125    18.389068613    -7.028584161
 C       -3.254704360    19.044468943    -5.095660747
 H       -4.773074153    15.365959737    -7.499638895
 C       -2.708928840    15.227636229    -8.160176104
 C       -3.859169392    13.578948674    -6.671753373
 H       -4.964097098    13.916408559    -1.948841049
 C       -3.820442004    12.451023704    -3.079759959
 C       -6.101232633    12.076480645    -2.115469992
 H       -6.080286220    11.920775369     0.886591000
 C       -4.715300735    12.296191398     2.533718723
 C       -5.879511102    14.060607744     1.187674442
 H       -0.126502849    -1.937392109    -1.512758202
 C       -2.140041118    -1.125839795    -1.577191358
 C       -0.185386506    -0.230170333    -2.855721402
 H       -1.781390216    -0.908871111     1.440970143
 C       -0.188862228    -2.368293323     1.639103729
 C       -0.302285312    -0.175807603     2.848764463
 H      -13.709259184    17.945642919     3.433893761
 H      -15.069918710    18.221730396     2.356986970
 H      -13.518785919    17.737905882     1.683347920
 H      -15.861274744    14.717395118     1.398399219
 H      -14.816014437    15.802754562     0.458136868
 H      -16.275538614    16.415102198     1.221480522
 H      -11.965794566    12.162599788     2.553001574
 H      -13.190636295    11.081256649     3.202542807
 H      -12.326025456    12.161412961     4.288547170
 H      -15.873699618    13.571131056     3.952122359
 H      -14.667304775    13.024871356     5.131799262
 H      -15.392281865    11.882003580     4.010555319
 H       -4.857248997    17.759274130    -7.913662925
 H       -4.612408790    19.420532894    -7.399702168
 H       -5.622115310    18.358671547    -6.429849945
 H       -2.358523885    18.869468183    -4.484625274
 H       -4.116788734    19.095770413    -4.414934416
 H       -3.143968158    20.050418294    -5.524428123
 H       -2.649883792    16.245750031    -8.565604310
 H       -2.941660355    14.573239162    -9.012587969
 H       -1.701725662    14.943850558    -7.822144759
 H       -4.650757944    13.362639934    -5.941124026
 H       -2.913035601    13.190591499    -6.268133399
 H       -4.087106974    12.968462317    -7.557349374
 H       -2.861581053    12.985885291    -3.044169160
 H       -4.293837668    12.725893091    -4.033687599
 H       -3.600625574    11.376336719    -3.143985707
 H       -6.859847887    12.350171977    -1.369786104
 H       -6.003824713    10.982989715    -2.113784549
 H       -6.527577102    12.348261435    -3.092550960
 H       -4.299877076    11.280737418     2.592690743
 H       -5.525911361    12.339314784     3.275205872
 H       -3.941099665    12.992233760     2.883608161
 H       -6.321967871    14.368318873     0.229215284
 H       -5.160282392    14.834181733     1.489317236
 H       -6.695878770    14.087680120     1.923552962
 H       -2.519540217    -1.695626593    -0.719682769
 H       -2.424944724    -1.695782550    -2.473624143
 H       -2.697125148    -0.179592203    -1.627571973
 H        0.901887424    -0.116115609    -2.952743102
 H       -0.637023341     0.764556139    -2.981023673
 H       -0.509811469    -0.826139933    -3.720765085
 H       -0.467625150    -2.974008139     0.767232074
 H       -0.653360719    -2.852606038     2.510413874
 H        0.896224181    -2.462250041     1.778668135
 H       -0.655139195     0.865216842     2.874346239
 H        0.776103693    -0.164406873     3.055289415
 H       -0.775542275    -0.681309674     3.702560585

