187   

Si        0.000000000     0.000000000     0.000000000
 C        1.865415476     0.000000000     0.000000000
 C       -0.673700929     1.713378851     0.000000000
 C        0.146455041     2.810042027     0.283570783
 C       -0.373410424     4.104192696     0.281076914
 C       -1.723583177     4.331663536     0.002320470
 C       -2.544934527     3.231457626    -0.278138590
 C       -2.028402736     1.938625363    -0.279444457
 C       -2.309611821     5.668056103    -0.011131617
 C       -1.631571634     6.801410015     0.237258181
 C       -2.212882230     8.139642685     0.225009131
 C       -3.562738383     8.373111147    -0.053156184
 C       -4.075765439     9.669562158    -0.053938217
 C       -3.243789753    10.762252442     0.212158463
 C       -1.890509789    10.532541631     0.489970698
 C       -1.384256100     9.235347697     0.500346121
Si       -3.906182712    12.478238384     0.214636373
 C       -2.543911137    13.660224973    -0.079707604
 C       -2.273849264    14.749320345     0.651570168
 C       -1.167741131    15.667606832     0.374295403
 C       -0.980081374    16.778107820     1.209199884
 C        0.052005764    17.675832064     0.988253797
 C        0.911618273    17.519794714    -0.120324481
 C        0.722249066    16.405807144    -0.959719103
 C       -0.287137936    15.488936681    -0.696052394
 N        1.957213489    18.438516676    -0.334701139
 C        1.713005101    19.834113229     0.073086388
 C        2.672730809    18.343720754    -1.619056222
 C        0.558445121    20.492940409    -0.698365828
 C        0.333746199    21.932552076    -0.209213075
 N       -0.695953850    22.651370620    -0.982075588
 C       -0.441680505    22.842897138    -2.354191566
 C        0.882624462    23.024193905    -2.807387309
 C        1.144789168    23.213455444    -4.154771832
 C        0.106291829    23.282277471    -5.093819323
 C       -1.207045496    23.134512648    -4.639336730
 C       -1.485681927    22.924720904    -3.295000800
 C       -2.063335471    22.247627939    -0.610794292
 C        0.438551158    23.483532950    -6.505407866
 C       -0.470570550    23.564395186    -7.485533890
Si       -0.115096003    23.814258996    -9.260647297
 C       -1.016844563    22.558128554   -10.256953364
 C       -1.475587614    21.377602486    -9.659706161
 C       -2.158363728    20.426148295   -10.413362458
 C       -2.389865362    20.625357997   -11.780614528
 C       -1.924824258    21.802247413   -12.374767612
 C       -1.244372724    22.758859901   -11.622745403
 C       -3.109997332    19.599299155   -12.527463963
 C       -3.400116011    19.668200401   -13.837771440
 C       -4.120247661    18.642070085   -14.584469986
 C       -4.585684750    17.465304759   -13.992168239
 C       -5.269993723    16.510504524   -14.744181924
 C       -5.510206351    16.716270323   -16.106269814
 C       -5.045076204    17.896206380   -16.702717791
 C       -4.356865790    18.844390209   -15.950912370
Si       -6.411743318    15.466311519   -17.113111243
 C       -7.244441851    14.189458938   -16.037987904
 C       -7.704184299    16.376262241   -18.173899657
 C       -5.188929785    14.583743931   -18.274402497
 C       -0.702819688    25.554746749    -9.756911738
 C        1.747372411    23.673133229    -9.617461146
 C       -5.184131130    12.671592273    -1.182130657
 C       -4.766065675    12.809334945     1.877828145
 C       -0.657485297    -0.900862021    -1.542585190
 C       -0.614065111    -0.922934521     1.547133801
 H        1.210134065     2.695587237     0.510092753
 H        0.287392004     4.940705193     0.501455916
 H       -3.599467760     3.386334972    -0.498173883
 H       -2.716994367     1.120118790    -0.507140918
 H       -3.377679798     5.697522766    -0.244676947
 H       -0.563074436     6.769954680     0.471013991
 H       -4.227401716     7.539216829    -0.270081584
 H       -5.139963474     9.790227785    -0.273642618
 H       -1.195786682    11.350834061     0.707212126
 H       -0.330947299     9.074375330     0.722545267
 H       -1.931400129    13.402098284    -0.960230412
 H       -2.867111178    15.039311951     1.528335903
 H       -1.648521196    16.935043978     2.056277617
 H        0.190396934    18.504374635     1.676601415
 H        1.363574555    16.242493175    -1.820131036
 H       -0.399488366    14.624962771    -1.353696217
 H        3.468028402    19.106873391    -1.662723341
 H        2.019487421    18.473925431    -2.497670006
 H        3.171987725    17.360049570    -1.684750904
 H       -2.135335657    22.126478366     0.483179274
 H       -2.388406558    21.307100649    -1.085419611
 H       -2.767485354    23.052759849    -0.888387600
 H        1.709476593    23.010306841    -2.103403076
 H        2.178147771    23.326182562    -4.484167460
 H       -2.035859341    23.183914604    -5.347953631
 H       -2.520770940    22.813601367    -2.987661985
 H        1.518264884    23.560020645    -6.688132236
 H       -1.549264862    23.493037454    -7.265798231
 H       -1.318653030    21.166560977    -8.596751523
 H       -2.512316227    19.516420628    -9.931939223
 H       -2.091544790    21.981134117   -13.435234401
 H       -0.905721166    23.659834872   -12.141576477
 H       -3.414457911    18.731347558   -11.935085205
 H       -3.095537489    20.535728930   -14.430430334
 H       -4.415689717    17.282920637   -12.932586260
 H       -5.607841917    15.608950523   -14.225670374
 H       -5.203878693    18.111276522   -17.763217495
 H       -4.001337914    19.753362583   -16.432390669
 H        1.515228707    19.852280433     1.169002184
 H        2.655791458    20.409423663    -0.069765396
 H        0.772578881    20.488328312    -1.785230732
 H       -0.368128206    19.897948477    -0.581432983
 H        0.033800617    21.937432403     0.863069283
 H        1.280646118    22.517423695    -0.256765662
 H        2.263348007    -1.029649585    -0.042996527
 H        2.275183174     0.476914336     0.907557480
 H        2.261020423     0.545218611    -0.876217678
 H       -7.819087695    13.469694216   -16.647929978
 H       -7.950708287    14.664751534   -15.333189977
 H       -6.512832305    13.612903087   -15.445248251
 H       -7.122056897    17.094500625   -18.821776057
 C       -8.502040993    15.444434526   -19.103146422
 C       -8.688542583    17.200807592   -17.324711866
 H       -5.793832926    13.797336758   -18.811930752
 C       -4.563781953    15.509533237   -19.333229388
 C       -4.056427688    13.874311639   -17.509529651
 H       -0.436086260    25.674009639   -10.846810170
 C       -2.226446706    25.723631122    -9.619947374
 C       -0.000059292    26.674209665    -8.969084919
 H        2.254116250    24.389699609    -8.907949997
 C        2.291145338    22.258891825    -9.343096332
 C        2.127677902    24.077661186   -11.053011863
 H       -6.015828740    11.946627976    -0.945844637
 C       -5.789821763    14.084471422    -1.251648555
 C       -4.610331492    12.302697552    -2.561782608
 H       -5.061225832    13.898367176     1.863510172
 C       -6.042705462    11.973645702     2.080411345
 C       -3.829957890    12.580219735     3.078625907
 H       -1.782312932    -0.898072059    -1.446494633
 C       -0.295213664    -0.172507085    -2.849510430
 C       -0.197270713    -2.366239387    -1.640694294
 H       -0.120096388    -1.936873863     1.513406085
 C       -0.191034250    -0.228818135     2.854856227
 C       -2.138128145    -1.136666945     1.573786984
 H       -7.868804335    14.872016623   -19.793233032
 H       -9.184250601    16.035564237   -19.731391650
 H       -9.131366447    14.730054531   -18.556046904
 H       -8.190971807    17.932071718   -16.671545742
 H       -9.335375628    16.578708908   -16.692040313
 H       -9.357991407    17.778425330   -17.977919037
 H       -5.305051526    15.996663985   -19.979179010
 H       -3.910998654    14.928401627   -20.000924637
 H       -3.930753427    16.293404247   -18.893911128
 H       -4.416567276    13.129897381   -16.787832153
 H       -3.403199354    14.573796070   -16.968093474
 H       -3.409202091    13.331320809   -18.213147425
 H       -2.800219760    24.980887431   -10.192024509
 H       -2.532263366    26.707751666   -10.002579055
 H       -2.570406733    25.678134758    -8.577528290
 H        1.090936931    26.672313173    -9.088769469
 H       -0.216458999    26.639906077    -7.891553740
 H       -0.346326850    27.656559499    -9.320744519
 H        2.097173888    21.902974231    -8.322145844
 H        3.381978298    22.241388340    -9.474995674
 H        1.885465294    21.506097019   -10.034549672
 H        1.863239683    25.114049435   -11.298381095
 H        1.678250868    23.425455209   -11.815049607
 H        3.216192501    23.999447019   -11.189070822
 H       -6.298525483    14.386152913    -0.327114666
 H       -6.546250035    14.131102665    -2.048018324
 H       -5.045327335    14.857876773    -1.489440509
 H       -4.194514122    11.286011342    -2.603024190
 H       -3.827316899    12.995690762    -2.899101184
 H       -5.403379953    12.340499395    -3.322041629
 H       -6.810402753    12.159193655     1.318580487
 H       -6.504799742    12.222164936     3.046933247
 H       -5.847403604    10.892186568     2.105516684
 H       -2.905091012    13.171502539     3.035043440
 H       -3.539454820    11.526013829     3.196019621
 H       -4.335778365    12.865472921     4.011639650
 H       -0.644267459     0.869760279    -2.876259614
 H       -0.767011011    -0.676030667    -3.705265039
 H        0.783961319    -0.164981523    -3.052077470
 H       -0.485427888    -2.971704062    -0.771665959
 H        0.888139676    -2.466443446    -1.773211808
 H       -0.658673485    -2.846413542    -2.515901787
 H        0.895579440    -0.110670957     2.954834528
 H       -0.515855939    -0.824860974     3.719746050
 H       -0.646462009     0.764458205     2.977660060
 H       -2.514838185    -1.699711846     0.710605728
 H       -2.700053394    -0.193907206     1.633806453
 H       -2.419962645    -1.717260065     2.464351530

