187   

Si        0.000000000     0.000000000     0.000000000
 C        1.865401639     0.000000000     0.000000000
 C       -0.679891329     1.710697939     0.000000000
 C        0.143823440     2.817758543     0.226235747
 C       -0.385353250     4.108403195     0.223330278
 C       -1.748191251     4.321253522     0.001283043
 C       -2.573017276     3.210572564    -0.222700316
 C       -2.047296923     1.921737236    -0.224269968
 C       -2.346228169     5.652126440    -0.010809087
 C       -1.670813053     6.797249992     0.185488635
 C       -2.271365698     8.127070021     0.172886902
 C       -1.449643391     9.240326584     0.392400609
 C       -1.978696501    10.528755274     0.389363776
 C       -3.343331190    10.734644312     0.154362524
 C       -4.166162337     9.623966252    -0.065540501
 C       -3.635419676     8.335194178    -0.050692403
Si       -4.067269380    12.424963061     0.144907748
 C       -5.480723321    12.559192900    -1.008053867
 C       -5.606842616    11.836258401    -2.128857166
 C       -6.737901504    11.943048057    -3.052329640
 C       -6.753973289    11.128469426    -4.195827699
 C       -7.799393163    11.190065568    -5.100776871
 C       -8.856582437    12.103877109    -4.903493025
 C       -8.845878148    12.916549812    -3.758978169
 C       -7.806338610    12.815888718    -2.839976879
 N       -9.899749417    12.126550979    -5.857166333
 C       -9.471407696    12.295456873    -7.265325815
 C      -11.089814653    12.920715680    -5.510960335
 C       -8.252336600    13.203812881    -7.494039774
 C       -8.472059337    14.642294495    -6.992374721
 N       -7.216271535    15.395003096    -6.824923954
 C       -6.444659560    15.627853202    -7.976542503
 C       -7.068304933    15.757009186    -9.236321495
 C       -6.311860003    15.986568523   -10.374181596
 C       -4.921055738    16.148217970   -10.301446136
 C       -4.308506190    16.053127765    -9.048764870
 C       -5.049031873    15.805400181    -7.900810705
 C       -6.486465867    15.024556837    -5.599557579
 C       -4.171308378    16.388460468   -11.534934261
 C       -2.843042424    16.557568035   -11.587889872
Si       -1.904381611    16.857776198   -13.127456774
 C       -2.702570341    16.070029952   -14.585928843
 C       -3.407495056    14.870923706   -14.428345995
 C       -4.018773528    14.259353532   -15.521487114
 C       -3.927901710    14.822228585   -16.797786278
 C       -3.213878276    16.017214463   -16.954975997
 C       -2.606198462    16.633646015   -15.863697937
 C       -4.551239827    14.217552990   -17.970294378
 C       -5.261369528    13.076766054   -17.956369134
 C       -5.884887536    12.471703218   -19.128580257
 C       -5.799197652    13.035845893   -20.403995507
 C       -6.410929840    12.423322195   -21.497609450
 C       -7.128653182    11.234030898   -21.337239637
 C       -7.216880744    10.666379664   -20.058834318
 C       -6.600488011    11.277169250   -18.970309915
Si       -7.942012830    10.412582042   -22.769727518
 C       -7.986491001    11.526255718   -24.265647543
 C       -6.989706469     8.826731588   -23.218744652
 C       -9.710396124     9.931969171   -22.254419758
 C       -1.748736866    18.734581625   -13.397723361
 C       -0.161550212    16.124265157   -12.917343119
 C       -4.678328375    12.839478890     1.897439724
 C       -2.752032139    13.701730568    -0.365387998
 C       -0.659342035    -0.898057745    -1.543367981
 C       -0.606208106    -0.928053309     1.547542156
 H        1.217290214     2.714262865     0.407113093
 H        0.277998279     4.953394356     0.398621903
 H       -3.637515995     3.354335220    -0.398308613
 H       -2.739035267     1.094607375    -0.407637576
 H       -3.424378930     5.666966690    -0.196585116
 H       -0.593037631     6.783127590     0.371677499
 H       -0.385114820     9.100067844     0.569748986
 H       -1.289686180    11.357643354     0.572666104
 H       -5.241111652     9.725254631    -0.250638420
 H       -4.296927728     7.487336963    -0.219643248
 H       -6.236181724    13.306232209    -0.721003928
 H       -4.861984091    11.090614187    -2.442174480
 H       -5.936077372    10.427423220    -4.369990636
 H       -7.815830070    10.528544738    -5.963919900
 H       -9.644998391    13.627159168    -3.573674299
 H       -7.827539351    13.444755252    -1.948850545
 H      -11.894726575    12.690974562    -6.231467371
 H      -10.927243801    14.009639949    -5.505044965
 H      -11.459312897    12.610521022    -4.516711888
 H       -7.195065248    14.775715611    -4.789270216
 H       -5.894427244    15.892099846    -5.256854497
 H       -5.816670685    14.158439957    -5.730679641
 H       -8.146908795    15.671187429    -9.325636318
 H       -6.812688231    16.057964308   -11.340686438
 H       -3.227908859    16.176524302    -8.962772892
 H       -4.532822580    15.742073579    -6.948098014
 H       -4.808766428    16.411373483   -12.430421007
 H       -2.229053806    16.541254318   -10.674774038
 H       -3.507161681    14.380416315   -13.453808590
 H       -4.567856853    13.331612526   -15.371652723
 H       -3.130352303    16.471513941   -17.940256074
 H       -2.062452392    17.564096045   -16.047905993
 H       -4.401790364    14.768587151   -18.903433673
 H       -5.410129889    12.525251274   -17.023378145
 H       -5.249647990    13.963201224   -20.555134663
 H       -6.307582980    12.911356495   -22.470720276
 H       -7.764942640     9.738325989   -19.873275106
 H       -6.678356216    10.820128846   -17.985680161
 H       -9.238369639    11.271425874    -7.647190517
 H      -10.331436947    12.659265837    -7.868332421
 H       -7.359271245    12.771693215    -6.997890708
 H       -7.999082337    13.216431097    -8.572433458
 H       -9.137555879    15.203991987    -7.684649789
 H       -8.995496957    14.638333493    -6.008709082
 H        2.263101511    -1.030027059    -0.035676360
 H        2.274333272     0.483107623     0.904724398
 H        2.262069814     0.538898593    -0.879550134
 H       -8.512975051    11.041493738   -25.107101325
 H       -6.971070268    11.784780912   -24.613677321
 H       -8.517308906    12.469378394   -24.041768214
 H       -7.500217722     8.415509001   -24.137183648
 C       -5.517618356     9.104168165   -23.574932259
 C       -7.036371659     7.745555040   -22.124316922
 H       -9.596841071     9.229745832   -21.377855000
 C      -10.536585622    11.142522672   -21.783428242
 C      -10.490137240     9.189848158   -23.354321535
 H       -1.110497670    18.867147062   -14.318403954
 C       -3.111364119    19.401299987   -13.658385382
 C       -1.053950666    19.459116937   -12.230814016
 H        0.290950967    16.644874529   -12.024695267
 C       -0.197481053    14.613853372   -12.622539357
 C        0.750534400    16.375382669   -14.130755519
 H       -5.096133637    13.885992104     1.844144015
 C       -5.805104335    11.897625972     2.358494105
 C       -3.553804354    12.826117879     2.947394961
 H       -1.930735632    13.631663917     0.404836401
 C       -2.144432412    13.392632576    -1.745459447
 C       -3.279730470    15.147653290    -0.365816402
 H       -1.784196410    -0.891019604    -1.447665517
 C       -0.294055685    -0.170171834    -2.849748567
 C       -0.203955201    -2.364831426    -1.642031884
 H       -0.095881394    -1.934095996     1.517172418
 C       -0.196605937    -0.224258689     2.854429462
 C       -2.126430675    -1.166894052     1.572617815
 H       -5.395254053     9.805582140   -24.410240530
 H       -5.022219328     8.171878091   -23.881930083
 H       -4.938850320     9.494479240   -22.725290897
 H       -8.055088494     7.431157305   -21.864733892
 H       -6.531187968     8.054295821   -21.198246264
 H       -6.515296291     6.840355429   -22.468962946
 H      -10.065744114    11.693952699   -20.956902804
 H      -11.515788687    10.809152758   -21.411301855
 H      -10.740210280    11.862127939   -22.587431479
 H       -9.997056025     8.268562577   -23.690491864
 H      -10.677950026     9.811070218   -24.240057423
 H      -11.477913529     8.888848108   -22.975894446
 H       -3.648319882    18.977182003   -14.518092203
 H       -2.973962849    20.469426122   -13.877218975
 H       -3.785199345    19.348271850   -12.790634786
 H       -0.039977913    19.090746430   -12.030272463
 H       -1.624130484    19.401398886   -11.292818407
 H       -0.951155349    20.529268870   -12.461436184
 H       -0.788809241    14.356667540   -11.733061521
 H        0.819566299    14.241614749   -12.435126993
 H       -0.589875137    14.024162250   -13.463545204
 H        0.904464208    17.440118905   -14.347350684
 H        0.382455359    15.896595844   -15.049481727
 H        1.748577666    15.952754958   -13.944991576
 H       -6.674194710    11.894116678     1.686716159
 H       -6.178522325    12.210495539     3.343961061
 H       -5.470890762    10.856275350     2.473990848
 H       -2.752070231    13.545418036     2.737143848
 H       -3.091997667    11.835458091     3.067771432
 H       -3.957320177    13.096659768     3.934056870
 H       -1.691412483    12.393404050    -1.809310346
 H       -1.342625416    14.108662818    -1.974222175
 H       -2.875757731    13.475867654    -2.562610977
 H       -3.662929877    15.472390443     0.609916631
 H       -4.071167319    15.313542152    -1.110121220
 H       -2.467323999    15.843268477    -0.621719834
 H       -0.639591672     0.873247644    -2.876074581
 H       -0.767560089    -0.671537331    -3.705868960
 H        0.785148906    -0.166444717    -3.052130410
 H       -0.494651256    -2.969889675    -0.773551183
 H        0.881207980    -2.468552745    -1.773905560
 H       -0.666355258    -2.842953350    -2.517868574
 H        0.887694324    -0.087241173     2.955590917
 H       -0.512292472    -0.824044675     3.720116076
 H       -0.668895249     0.761417814     2.974607314
 H       -2.494060111    -1.730919637     0.706171543
 H       -2.703639216    -0.233970244     1.638765358
 H       -2.398456982    -1.757409405     2.459770773

