187   

Si        0.000000000     0.000000000     0.000000000
 C        1.865361164     0.000000000     0.000000000
 C       -0.674790003     1.712634973     0.000000000
 C        0.124782778     2.801034393    -0.363181642
 C       -0.394869228     4.095226569    -0.360304549
 C       -1.724542993     4.330816757    -0.000501695
 C       -2.525703575     3.238664536     0.358245532
 C       -2.009786666     1.945617955     0.356864088
 C       -2.309637779     5.667527106     0.016540733
 C       -1.648269024     6.792260473    -0.304719766
 C       -2.224557597     8.132365689    -0.290628010
 C       -1.408869103     9.213159577    -0.651744931
 C       -1.907403886    10.511868431    -0.655528268
 C       -3.239311030    10.759622544    -0.296809077
 C       -4.055739345     9.684526529     0.065583934
 C       -3.550806684     8.383820664     0.069754015
Si       -3.876590049    12.482817721    -0.308862954
 C       -5.701772919    12.532495537    -0.300780935
 C       -6.464099462    13.258074813     0.527436620
 C       -7.927348552    13.267354465     0.498167666
 C       -8.619011148    14.068617743     1.416893872
 C      -10.003792268    14.113867692     1.431871822
 C      -10.752592606    13.399552651     0.471480782
 C      -10.057277256    12.603183733    -0.460771137
 C       -8.671412496    12.529749219    -0.427132025
 N      -12.153069843    13.443552310     0.484317096
 C      -12.811508815    14.589921467     1.128369348
 C      -12.857751438    12.918641775    -0.694270754
 C      -12.486792788    15.960673640     0.507450385
 C      -13.406785350    16.265849496    -0.687910422
 N      -13.027552233    17.428568815    -1.503594757
 C      -12.021685967    17.240998337    -2.489486164
 C      -11.174999422    16.123927294    -2.546613676
 C      -10.217098869    16.024654245    -3.549420835
 C      -10.108103421    17.003776891    -4.544358345
 C      -10.974312300    18.102894079    -4.498077445
 C      -11.920467323    18.224294398    -3.492283068
 C      -12.872415603    18.665867702    -0.715543176
 C       -9.083841716    16.858884829    -5.582182695
 C       -8.897225738    17.737874437    -6.576480135
Si       -7.624947334    17.575112279    -7.880914913
 C       -6.145766574    16.676858212    -7.262394584
 C       -5.706192081    16.917125501    -5.953312194
 C       -4.589920320    16.253865758    -5.454123420
 C       -3.868951294    15.358396982    -6.255720465
 C       -4.302334965    15.130238024    -7.563857163
 C       -5.430937810    15.781101481    -8.062742882
 C       -2.707377571    14.690998358    -5.681458647
 C       -1.928577790    13.798798817    -6.315953665
 C       -0.770446587    13.146923689    -5.712341251
 C       -0.363614980    13.398244223    -4.399207966
 C        0.749600382    12.753512882    -3.860585753
 C        1.479787970    11.838822403    -4.625646536
 C        1.073764721    11.584722313    -5.942875627
 C       -0.036305476    12.231864991    -6.478340993
Si        2.952626056    10.975011399    -3.937582896
 C        3.352336113    11.578441875    -2.217564815
 C        2.643426615     9.098227121    -3.851971961
 C        4.412350754    11.293502345    -5.115686596
 C       -8.384400091    16.666052585    -9.369163391
 C       -7.100684151    19.318151937    -8.432915471
 C       -3.139138437    13.447693177     1.152504600
 C       -3.315667262    13.294834415    -1.936919480
 C       -0.620369249    -0.917391210    -1.548038003
 C       -0.653873713    -0.908132760     1.540183521
 H        1.171935138     2.679577085    -0.653487867
 H        0.249660474     4.925345540    -0.643743180
 H       -3.564316294     3.399896325     0.641083383
 H       -2.682906481     1.133484757     0.645481012
 H       -3.360240827     5.705007333     0.317843369
 H       -0.597192857     6.750838658    -0.606409297
 H       -0.372525713     9.037283019    -0.934652403
 H       -1.225284472    11.313685605    -0.953946306
 H       -5.101931218     9.823329984     0.355527456
 H       -4.204219031     7.562179786     0.356047806
 H       -6.156172938    11.894822744    -1.077824723
 H       -6.043796193    13.906911429     1.306738344
 H       -8.061300661    14.657157432     2.146347063
 H      -10.503313650    14.715077589     2.184718730
 H      -10.592863866    12.030530660    -1.210641896
 H       -8.159191033    11.893904023    -1.151664836
 H      -13.945874915    13.059289415    -0.589014285
 H      -12.683262483    11.827918190    -0.761376396
 H      -12.535450034    13.385215138    -1.641323281
 H      -13.752210993    18.795513738    -0.063619427
 H      -12.835679883    19.536510289    -1.392427366
 H      -11.963083790    18.676750482    -0.093207226
 H      -11.232258257    15.341922909    -1.793306651
 H       -9.545675996    15.164168822    -3.557469049
 H      -10.913230384    18.876272085    -5.264162122
 H      -12.597645487    19.075027945    -3.481730818
 H       -8.467120041    15.956964435    -5.460611833
 H       -9.536245914    18.628697364    -6.677243345
 H       -6.225822028    17.611777932    -5.284030857
 H       -4.273184223    16.441999022    -4.429453472
 H       -3.760751854    14.438371812    -8.205687797
 H       -5.725094271    15.560117686    -9.092071038
 H       -2.478680552    14.986009745    -4.650051211
 H       -2.138566280    13.505775565    -7.347870200
 H       -0.917771287    14.102980787    -3.780396476
 H        1.018157386    12.990169242    -2.827284259
 H        1.608061114    10.882674948    -6.589325313
 H       -0.335597079    12.021406562    -7.503228307
 H      -13.910850098    14.413716036     1.126921802
 H      -12.517983072    14.585218751     2.205918186
 H      -12.592102267    16.749101139     1.274975208
 H      -11.423385331    16.000436224     0.196727223
 H      -13.482315058    15.382359652    -1.361072378
 H      -14.443601434    16.458900886    -0.322549965
 H        2.263317666    -1.028601329     0.062237847
 H        2.260458381     0.561831321     0.865961102
 H        2.275538640     0.460231378    -0.915780868
 H        4.237134184    11.057854002    -1.809949950
 H        2.513804434    11.406811114    -1.519218900
 H        3.577615761    12.660041698    -2.218110910
 H        3.583908489     8.662622102    -3.404873969
 C        1.463949518     8.732936007    -2.932561627
 C        2.420825800     8.435190117    -5.222558347
 H        4.098942893    10.871418948    -6.114819738
 C        4.698016354    12.793873585    -5.308663261
 C        5.711385317    10.586404684    -4.690676770
 H       -7.570131469    16.606625119   -10.147905915
 C       -8.818937169    15.231637070    -9.018047278
 C       -9.580393243    17.410011671    -9.989842026
 H       -8.038430744    19.821768717    -8.806860899
 C       -6.539730953    20.156857338    -7.270369092
 C       -6.075105732    19.304451611    -9.579755625
 H       -3.638690171    14.459614140     1.139532160
 C       -3.443821101    12.780788443     2.506334887
 C       -1.619666351    13.668711137     1.040036521
 H       -2.188136267    13.263616483    -1.934476680
 C       -3.813216886    12.509023580    -3.161696628
 C       -3.759641689    14.762696763    -2.048129241
 H       -0.135121622    -1.935408045    -1.516021924
 C       -2.146457562    -1.116823355    -1.571581476
 C       -0.193133241    -0.225699233    -2.855635639
 H       -1.778579515    -0.912782388     1.443105829
 C       -0.184455842    -2.370771598     1.636049125
 C       -0.297466126    -0.180020499     2.848920553
 H        1.604645452     9.072898664    -1.898061533
 H        1.346091948     7.640239181    -2.887674194
 H        0.502948018     9.129430515    -3.293583351
 H        3.236270045     8.612500631    -5.934485961
 H        1.481101191     8.749332236    -5.698564856
 H        2.351310036     7.343709360    -5.103695374
 H        3.824269679    13.360184728    -5.661642212
 H        5.480455198    12.933786941    -6.068304481
 H        5.062762856    13.282483935    -4.395552246
 H        5.606660638     9.496785782    -4.609285529
 H        6.108732850    10.956863018    -3.736419450
 H        6.497081236    10.763750514    -5.439711265
 H       -8.006124997    14.613762225    -8.612004375
 H       -9.178323190    14.714591226    -9.918700185
 H       -9.646729474    15.202373959    -8.294374424
 H       -9.331596411    18.419326406   -10.341462538
 H      -10.434423840    17.494184920    -9.303257666
 H       -9.947769726    16.861790636   -10.869417273
 H       -7.238435939    20.259145735    -6.428882697
 H       -6.319304075    21.177470141    -7.613974355
 H       -5.595816277    19.757119737    -6.872455100
 H       -6.438597125    18.799863537   -10.484019602
 H       -5.121710790    18.835991653    -9.296029761
 H       -5.832129918    20.334067968    -9.879906498
 H       -4.516269137    12.625732443     2.688199971
 H       -3.078676930    13.410878836     3.329293555
 H       -2.948245416    11.806006834     2.621857955
 H       -1.325209286    14.216978847     0.135888061
 H       -1.048559560    12.730087303     1.069082587
 H       -1.264293600    14.267339188     1.891067340
 H       -3.545261978    11.442924595    -3.138660249
 H       -3.357613648    12.905472422    -4.081629668
 H       -4.899667592    12.578761797    -3.305835686
 H       -3.403211067    15.391556146    -1.222444584
 H       -4.853164154    14.873379111    -2.102414090
 H       -3.359275882    15.209202977    -2.969503818
 H       -2.524449725    -1.688904064    -0.714868636
 H       -2.437384339    -1.681783154    -2.469167294
 H       -2.700423431    -0.168301092    -1.614998886
 H        0.894096815    -0.114387623    -2.955739082
 H       -0.642710908     0.770311868    -2.977993089
 H       -0.521739892    -0.819435576    -3.720647157
 H       -0.463194836    -2.975212553     0.763284551
 H       -0.647948473    -2.857092331     2.506769145
 H        0.900793471    -2.464000542     1.774781799
 H       -0.652307981     0.860286393     2.877079656
 H        0.781416892    -0.166576240     3.052779734
 H       -0.767397551    -0.687924375     3.703120417

