187   

Si        0.000000000     0.000000000     0.000000000
 C        1.865529120     0.000000000     0.000000000
 C       -0.677415354     1.711716510     0.000000000
 C        0.152315933     2.818961460    -0.202100175
 C       -0.374763638     4.110434692    -0.199553634
 C       -1.741132407     4.324153166    -0.001178616
 C       -2.571799063     3.213388372     0.199522155
 C       -2.048273653     1.923611103     0.201498059
 C       -2.336597836     5.656231444     0.009466447
 C       -1.654862072     6.800977379    -0.166078906
 C       -2.251700554     8.132499965    -0.155187355
 C       -1.422229195     9.244729042    -0.351605857
 C       -1.947183316    10.534653723    -0.349293487
 C       -3.319459923    10.739937128    -0.164490126
 C       -4.150986235     9.631387844     0.029744317
 C       -3.619886276     8.342467743     0.038909309
Si       -4.039118914    12.432612111    -0.157047923
 C       -5.793820532    12.327355804    -0.656758157
 C       -6.831077004    12.874818197    -0.010931149
 C       -8.221499688    12.759369737    -0.456369146
 C       -9.228532116    13.376372648     0.302622114
 C      -10.557408606    13.296214239    -0.076507637
 C      -10.923552881    12.565837235    -1.226613573
 C       -9.919321661    11.954687513    -1.992577273
 C       -8.585307314    12.072472184    -1.616047130
 N      -12.296475957    12.517700213    -1.567114555
 C      -13.189731046    12.012051023    -0.497509408
 C      -12.621064047    11.979571249    -2.898461255
 C      -12.600727519    10.921406127     0.412655115
 C      -12.208603002     9.645531966    -0.354058317
 N      -11.282864677     8.777990015     0.395927660
 C      -11.741269579     8.243996070     1.612383951
 C      -13.112176008     7.956851968     1.789105495
 C      -13.570338595     7.430325362     2.985932120
 C      -12.686729486     7.120411451     4.029301242
 C      -11.325300325     7.374458284     3.840456687
 C      -10.850994106     7.919013469     2.654773413
 C       -9.890535276     9.258184580     0.362585708
 C      -13.223884127     6.566155893     5.273034701
 C      -12.473285474     6.234747467     6.331670751
Si      -13.085934132     5.540716709     7.906678721
 C      -12.394453557     6.498427682     9.317032364
 C      -11.906029610     7.794135641     9.118914647
 C      -11.381232482     8.522879927    10.185648510
 C      -11.342653694     7.978593084    11.472307015
 C      -11.838358256     6.682609731    11.668761754
 C      -12.359204223     5.950157469    10.605293097
 C      -10.802825685     8.704605051    12.617297066
 C      -10.298352833     9.949093787    12.564931330
 C       -9.758265243    10.676203439    13.708987621
 C       -9.714502965    10.133061932    14.995502522
 C       -9.189128011    10.864288915    16.060953355
 C       -8.700920836    12.159525176    15.862623026
 C       -8.744290869    12.706790649    14.573011930
 C       -9.264187578    11.972666514    13.510819527
Si       -8.004429546    13.137909522    17.257735181
 C       -8.401820138    12.360232305    18.906119787
 C       -6.113122981    13.248211996    17.073055048
 C       -8.725302661    14.897541667    17.169684427
 C      -14.985036045     5.590611273     7.991077630
 C      -12.515946038     3.729339308     8.033334039
 C       -3.854568323    13.176237151     1.582622979
 C       -3.116588980    13.538978529    -1.398545891
 C       -0.603932223    -0.928591499    -1.548116340
 C       -0.662079085    -0.896570353     1.542903599
 H        1.228796318     2.715041726    -0.363705669
 H        0.293155761     4.955372636    -0.356894540
 H       -3.639230283     3.357750336     0.356831904
 H       -2.744645330     1.096414180     0.366493750
 H       -3.417791082     5.672241145     0.176180375
 H       -0.573814551     6.785251506    -0.332477097
 H       -0.354214663     9.102215452    -0.504915256
 H       -1.251934568    11.364668850    -0.501161156
 H       -5.230885689     9.734293525     0.180776653
 H       -4.285426425     7.495523971     0.196303023
 H       -5.942013139    11.754650780    -1.588295409
 H       -6.718452163    13.456524248     0.912872399
 H       -8.961614485    13.934505983     1.200764196
 H      -11.325346656    13.803168780     0.503660148
 H      -10.166900786    11.390385264    -2.886238716
 H       -7.818930272    11.603973499    -2.236104875
 H      -13.681275442    12.195992491    -3.120130500
 H      -12.455544258    10.896849480    -3.008495206
 H      -12.024507367    12.510214586    -3.662491693
 H       -9.663240877     9.707189679    -0.621015671
 H       -9.208316057     8.398364581     0.489929375
 H       -9.666652406    10.015312572     1.132426240
 H      -13.820323078     8.152174408     0.989737215
 H      -14.636956764     7.240025636     3.108581653
 H      -10.614432993     7.141483306     4.635394869
 H       -9.785545877     8.099185601     2.550801440
 H      -14.315342603     6.449062014     5.257765119
 H      -11.377089539     6.356716999     6.309928062
 H      -11.914981244     8.273421362     8.134289157
 H      -11.001733563     9.527079895    10.005889930
 H      -11.817116749     6.240660149    12.662945402
 H      -12.729919714     4.943710428    10.817673653
 H      -10.832633158     8.155336797    13.562853693
 H      -10.268738000    10.498001468    11.619068330
 H      -10.091495046     9.128262899    15.177357143
 H       -9.180918911    10.385666711    17.044044561
 H       -8.377571551    13.714636210    14.358494722
 H       -9.287921442    12.413889048    12.516188833
 H      -13.461128307    12.898013311     0.127049207
 H      -14.138689539    11.653301041    -0.951187823
 H      -11.715747490    11.315521708     0.952878918
 H      -13.329978402    10.671983326     1.208346856
 H      -13.112492930     9.055193713    -0.623239252
 H      -11.719391162     9.905001991    -1.320805397
 H        2.263254429    -1.029890302     0.039526361
 H        2.262721059     0.542247342     0.877210815
 H        2.273682558     0.479476133    -0.906972770
 H       -8.018605143    12.976033124    19.739385934
 H       -7.955164361    11.355156940    19.002729160
 H       -9.493774800    12.259216413    19.043245609
 H       -5.749825829    13.804751845    17.984945364
 C       -5.440575829    11.863188614    17.059352647
 C       -5.658632837    14.028634758    15.826658945
 H       -8.399814836    15.315607731    16.172838208
 C      -10.264317053    14.906029068    17.203590857
 C       -8.194038483    15.834381627    18.269207176
 H      -15.350320093     5.081340555     7.052618491
 C      -15.564209042     4.833177565     9.199291654
 C      -15.533579412     7.029394872     8.001618643
 H      -12.939433476     3.336488661     9.002485013
 C      -13.049752653     2.849950759     6.889087854
 C      -10.983867972     3.596796177     8.096353595
 H       -4.400550874    14.163584845     1.559468395
 C       -4.500269334    12.295452578     2.668125069
 C       -2.391366412    13.449598836     1.973807674
 H       -2.047801137    13.586217643    -1.039074230
 C       -3.113865052    12.954096341    -2.822142684
 C       -3.665805426    14.975594730    -1.447054288
 H       -0.092023019    -1.933831636    -1.516942434
 C       -2.123628982    -1.170177078    -1.575785126
 C       -0.193668853    -0.224305126    -2.854548740
 H       -1.786740783    -0.890033242     1.444511041
 C       -0.206004019    -2.362974187     1.644041132
 C       -0.300219684    -0.166997056     2.849269780
 H       -5.649391319    11.267031105    17.956907974
 H       -4.347824287    11.975577162    17.012898918
 H       -5.724874741    11.259361516    16.185484052
 H       -6.030906411    15.060451204    15.798124162
 H       -5.949192578    13.538143710    14.886925578
 H       -4.561150867    14.098647896    15.807685728
 H      -10.719024749    14.299622001    16.407114597
 H      -10.639156299    15.929673734    17.061613308
 H      -10.674838119    14.556489109    18.160126550
 H       -7.101064012    15.935508250    18.263956619
 H       -8.496621269    15.525000351    19.278385074
 H       -8.596857288    16.847586210    18.125301633
 H      -15.297307951     3.768862428     9.215685403
 H      -16.662991783     4.872389739     9.175153457
 H      -15.264937426     5.270783074    10.162138411
 H      -15.201252721     7.633084116     7.146008395
 H      -15.265301806     7.580241538     8.914820814
 H      -16.631722083     7.015232566     7.962292484
 H      -14.145617593     2.824680191     6.834031576
 H      -12.724788593     1.809349929     7.030750401
 H      -12.674426573     3.157494704     5.902281033
 H      -10.530466182     4.168183950     8.918652192
 H      -10.488989986     3.905194840     7.165098459
 H      -10.703114344     2.546866625     8.261393203
 H       -5.562959883    12.082941769     2.488952526
 H       -4.445839696    12.798781545     3.643818236
 H       -3.988941231    11.329654023     2.792137752
 H       -1.885119958    14.155403411     1.302987242
 H       -1.782782805    12.535376792     2.021924117
 H       -2.348352224    13.897345823     2.977549555
 H       -2.700081293    11.937200791    -2.875621059
 H       -2.490535859    13.573663457    -3.482740668
 H       -4.113720686    12.929881929    -3.276788593
 H       -3.616957816    15.493617051    -0.480537144
 H       -4.706278062    15.025114924    -1.798843976
 H       -3.075245217    15.580672953    -2.149997687
 H       -2.492516985    -1.732229361    -0.708537278
 H       -2.392396758    -1.763915396    -2.461790491
 H       -2.702335351    -0.238547646    -1.646449128
 H        0.890462889    -0.084741736    -2.954024726
 H       -0.667979316     0.760236088    -2.975850205
 H       -0.506431094    -0.825017857    -3.720640331
 H       -0.491263611    -2.968379174     0.774035208
 H       -0.673026468    -2.841463078     2.517297282
 H        0.878484201    -2.465700458     1.782028095
 H       -0.646334088     0.876325730     2.873664433
 H        0.778418005    -0.162615826     3.054506513
 H       -0.775929133    -0.667639119     3.704710789

