187   

Si        0.000000000     0.000000000     0.000000000
 C        1.865309197     0.000000000     0.000000000
 C       -0.625478753     1.731523256     0.000000000
 C       -0.073285619     2.653200156    -0.898280888
 C       -0.523003526     3.971108551    -0.925022974
 C       -1.531007658     4.402887327    -0.057468352
 C       -2.084970337     3.478889491     0.836452538
 C       -1.642217754     2.157723243     0.861839405
 C       -2.027845405     5.776046230    -0.056551175
 C       -1.568084567     6.734954694    -0.877294053
 C       -2.028142522     8.116585890    -0.916941009
 C       -1.442165596     8.997467857    -1.837502215
 C       -1.848436148    10.326240402    -1.912476804
 C       -2.846770080    10.813017951    -1.057927835
 C       -3.431597645     9.934693282    -0.140460539
 C       -3.031252640     8.600524793    -0.075060514
Si       -3.367088733    12.574467250    -1.176256209
 C       -4.415492813    13.111192229     0.221862265
 C       -4.358520510    12.625821143     1.468802066
 C       -5.215838453    13.081116467     2.564548784
 C       -5.058377954    12.492064688     3.828957180
 C       -5.845017047    12.888459023     4.896325244
 C       -6.857553981    13.850292496     4.718388306
 C       -7.022858002    14.434751194     3.455882108
 C       -6.193755936    14.063162602     2.401130071
 N       -7.631820869    14.213396496     5.861938660
 C       -8.386187369    13.047968675     6.394669921
 C       -8.474525733    15.410037295     5.689127848
 C       -9.013842690    13.320797524     7.769488195
 C       -7.983957316    13.740803363     8.836985559
 N       -6.980708219    12.725513686     9.187428584
 C       -5.746440965    12.724593474     8.520679939
 C       -5.153404569    13.954181578     8.152617530
 C       -3.938229409    13.978960765     7.495186224
 C       -3.230813954    12.793963106     7.229310273
 C       -3.799826417    11.582249571     7.620503815
 C       -5.036275871    11.537993335     8.258498869
 C       -7.555056196    11.425759115     9.558886420
 C       -1.950792931    12.897177839     6.529283797
 C       -1.162974699    11.862948940     6.205380277
Si        0.431692506    12.036360709     5.328911067
 C        0.670085019    10.950042677     3.861185684
 C       -0.186146552    10.995583020     2.753358673
 C        0.025937994    10.157544433     1.660019665
 C        1.116467059     9.278633831     1.628398638
 C        1.971961675     9.238419443     2.732111983
 C        1.745256807    10.053852611     3.838439001
 C        1.313313245     8.412886062     0.470328851
 C        2.307645590     7.515920055     0.351468726
 C        2.517178842     6.644126557    -0.799216766
 C        1.678841102     6.662019437    -1.916265207
 C        1.905676118     5.816506869    -2.999960911
 C        2.957798926     4.893603477    -2.970637332
 C        3.790365216     4.858919476    -1.845799202
 C        3.575340700     5.726314717    -0.776840923
Si        3.222495836     3.795279939    -4.423507263
 C        1.591860246     3.079583525    -4.982600963
 C        3.998560035     4.808522836    -5.833831031
 C        4.419864925     2.385881782    -3.974272156
 C        0.658638087    13.834894030     4.728584250
 C        1.781634809    11.697238186     6.636520134
 C       -1.805978582    13.662510434    -1.230141359
 C       -4.362025597    12.835780675    -2.775501044
 C       -0.629615974    -0.879783596    -1.567393274
 C       -0.653027453    -0.944790227     1.516802584
 H        0.728229741     2.382720468    -1.593145338
 H       -0.063825328     4.669241887    -1.626611663
 H       -2.870745569     3.792023064     1.520770279
 H       -2.117284072     1.481933366     1.577194360
 H       -2.804711081     5.989554492     0.681302551
 H       -0.798746351     6.489870099    -1.617703305
 H       -0.672040564     8.640410427    -2.518951079
 H       -1.355219598    10.963213361    -2.652340503
 H       -4.234034003    10.247444851     0.535854794
 H       -3.505726079     7.937357926     0.645973525
 H       -5.131967339    13.905363412    -0.042545968
 H       -3.640326221    11.852388343     1.778003278
 H       -4.290783034    11.731266893     3.984564819
 H       -5.674186964    12.460288149     5.885639729
 H       -7.795778418    15.176012163     3.281248610
 H       -6.330292682    14.541676501     1.431408821
 H       -8.849467746    15.727948386     6.676634937
 H       -9.335226994    15.265945617     5.018577212
 H       -7.854929345    16.239945786     5.304943550
 H       -8.471099478    11.578394568    10.154047423
 H       -6.840455187    10.883448905    10.205539943
 H       -7.801915870    10.790200635     8.692587533
 H       -5.667803862    14.890482289     8.357822619
 H       -3.520139282    14.938136727     7.186885696
 H       -3.274324786    10.647014375     7.423666948
 H       -5.446040821    10.572952442     8.533620891
 H       -1.693415896    13.937167388     6.279414447
 H       -1.435236676    10.829542322     6.465889152
 H       -1.052646214    11.663904724     2.719708407
 H       -0.670655633    10.182102804     0.819361697
 H        2.822870300     8.559829424     2.740566462
 H        2.448942456     9.959617120     4.670466629
 H        0.570130919     8.538322407    -0.323792604
 H        3.040098399     7.390043306     1.154091277
 H        0.863015211     7.382387537    -1.964556480
 H        1.227434283     5.898777050    -3.854456450
 H        4.628639847     4.161991875    -1.766808019
 H        4.236477602     5.684533533     0.086372935
 H       -9.179864485    12.723922122     5.684681120
 H       -7.674072408    12.194066971     6.492801214
 H       -9.785946593    14.109601228     7.691169821
 H       -9.554501256    12.411837374     8.096041102
 H       -7.472809383    14.671897643     8.493547312
 H       -8.518626090    14.005590000     9.779902348
 H        2.265629800    -1.028096043     0.033151311
 H        2.256469780     0.540346573     0.881912145
 H        2.274031967     0.493215815    -0.899413906
 H        1.725561275     2.421901929    -5.859242016
 H        0.871194418     3.867583925    -5.262733730
 H        1.128704846     2.475212067    -4.180002667
 H        4.116592857     4.092426766    -6.697621904
 C        3.106305459     5.972604884    -6.301753869
 C        5.389770541     5.364394835    -5.479899243
 H        5.357931806     2.885750565    -3.594483520
 C        3.877771477     1.476523865    -2.856662504
 C        4.811543598     1.509049231    -5.177659756
 H        0.551961390    14.477549660     5.649708980
 C        2.053230125    14.088374337     4.128216664
 C       -0.402965479    14.282965364     3.708474315
 H        2.762670143    11.688408787     6.080961038
 C        1.862302118    12.791240491     7.716978671
 C        1.605098237    10.335203101     7.332678236
 H       -1.251238836    13.364534619    -2.166080184
 C       -2.122266702    15.165728600    -1.320443845
 C       -0.878431353    13.418563827    -0.027431841
 H       -4.641406205    13.928973605    -2.790489707
 C       -3.566423943    12.532206908    -4.056673488
 C       -5.661536282    12.010622497    -2.788939717
 H       -0.196905942    -1.920785115    -1.527345568
 C       -2.163678380    -1.000029699    -1.612322554
 C       -0.149575704    -0.216348850    -2.871632241
 H       -1.775569174    -0.827298510     1.495917025
 C       -0.340479071    -2.452317753     1.482912563
 C       -0.137978639    -0.364039423     2.846876505
 H        2.111812230     5.652391359    -6.637494177
 H        3.570612192     6.479779258    -7.159953568
 H        2.970192723     6.742431990    -5.528590239
 H        6.118422473     4.584892725    -5.222936612
 H        5.363552448     6.084020341    -4.649063772
 H        5.809495221     5.905010945    -6.340649258
 H        3.590864234     2.025844949    -1.947962528
 H        4.648672547     0.755169650    -2.550459457
 H        3.009992863     0.883448943    -3.177781171
 H        5.295255874     2.071710537    -5.986548102
 H        3.960010554     0.967731036    -5.610586044
 H        5.535613182     0.742848827    -4.864484329
 H        2.873569083    13.890211011     4.829619110
 H        2.149960426    15.142563321     3.832137964
 H        2.242805553    13.495969917     3.221429774
 H       -1.437572533    14.093460558     4.026848229
 H       -0.266247616    13.809018140     2.725590764
 H       -0.327448657    15.366206425     3.539174221
 H        2.111726639    13.781347542     7.314607716
 H        2.652674635    12.547002288     8.440988265
 H        0.933920107    12.890211281     8.297426615
 H        1.524521071     9.487441570     6.639465372
 H        0.722755006    10.308330774     7.987967399
 H        2.472254851    10.125836857     7.974924937
 H       -2.723353367    15.434607800    -2.197888802
 H       -1.188871236    15.741475223    -1.402121414
 H       -2.640407562    15.547296675    -0.429246335
 H       -0.537100017    12.376214495     0.056732792
 H       -1.341586515    13.697362711     0.930523472
 H        0.031589281    14.028060283    -0.121186955
 H       -2.655394895    13.135371009    -4.158502574
 H       -4.180860945    12.754601363    -4.941388466
 H       -3.282384557    11.473806016    -4.142193384
 H       -6.317605981    12.213654623    -1.931277192
 H       -5.479038782    10.926657868    -2.815078464
 H       -6.248417279    12.244697424    -3.688348499
 H       -2.583859455    -1.546649188    -0.758531699
 H       -2.472789912    -1.551798832    -2.511508387
 H       -2.667129752    -0.023841101    -1.662877290
 H        0.943072759    -0.146671421    -2.949202985
 H       -0.563625006     0.792781893    -3.011996023
 H       -0.481770087    -0.807078150    -3.737163928
 H       -0.759954074    -2.963003453     0.606515922
 H       -0.777437917    -2.945960572     2.363077419
 H        0.735492601    -2.668474823     1.512868986
 H       -0.335035265     0.710868676     2.963307518
 H        0.940602471    -0.516428562     2.988015761
 H       -0.633710376    -0.861417699     3.692477727

