187   

Si        0.000000000     0.000000000     0.000000000
 C        1.863528139     0.000000000     0.000000000
 C       -0.684792607     1.707001627     0.000000000
 C        0.078275877     2.805875225     0.406503428
 C       -0.465882744     4.091344627     0.396890107
 C       -1.785495661     4.299220561    -0.008107949
 C       -2.549354029     3.195291581    -0.411028731
 C       -2.008747062     1.914846431    -0.409612885
 C       -2.417829435     5.610460125    -0.043224289
 C       -1.843677752     6.776227046     0.297786544
 C       -2.544284516     8.055926773     0.236168206
 C       -1.879243609     9.230385970     0.608092167
 C       -2.529004325    10.462725443     0.556916501
 C       -3.871109033    10.542165926     0.168331563
 C       -4.543199099     9.365452393    -0.182753700
 C       -3.887150585     8.138789290    -0.145610267
Si       -4.772672698    12.144553486     0.084989572
 C       -6.137957774    12.059780200    -1.133556755
 C       -6.107310972    11.281305696    -2.224183229
 C       -7.178284790    11.189483488    -3.216328925
 C       -7.009487834    10.330700318    -4.310993698
 C       -7.989931679    10.202407780    -5.282640329
 C       -9.214503003    10.889449327    -5.154482033
 C       -9.388335804    11.746815592    -4.048867354
 C       -8.374543525    11.905355355    -3.114075207
 N      -10.226434611    10.778111099    -6.123960479
 C      -10.118880320     9.710204935    -7.128291818
 C      -11.607049597    11.002221326    -5.661467288
 C      -10.373037450     8.298386891    -6.571854103
 C       -9.932177139     7.242283478    -7.600196631
 N      -10.321005461     5.867838423    -7.249646334
 C       -9.736589994     5.277206909    -6.116037552
 C       -8.519956278     5.759173341    -5.588717075
 C       -7.956499871     5.165597887    -4.469930545
 C       -8.540194340     4.039058805    -3.873189902
 C       -9.726747431     3.541079272    -4.417585794
 C      -10.319278620     4.140194655    -5.520858080
 C      -11.752316909     5.600393223    -7.471979694
 C       -7.902777125     3.453370744    -2.694053580
 C       -8.359945782     2.379827784    -2.033898596
Si       -7.521296067     1.686849439    -0.560756770
 C       -6.659446571     3.037371517     0.343128012
 C       -7.249532156     4.309343616     0.370288539
 C       -6.631822331     5.358491187     1.042004957
 C       -5.428754590     5.155068613     1.731693216
 C       -4.851737075     3.883451005     1.717401040
 C       -5.460128066     2.832654452     1.029535662
 C       -4.826732566     6.290717812     2.417500915
 C       -3.671869817     6.254839872     3.102936103
 C       -3.094748310     7.411121314     3.779616023
 C       -3.712088618     8.664733587     3.764495501
 C       -3.136765952     9.750768748     4.420101819
 C       -1.917252598     9.610322131     5.090364420
 C       -1.289364791     8.358299761     5.095830285
 C       -1.870379478     7.272817363     4.444729339
Si       -1.168163069    11.053085987     5.952442150
 C       -2.472819654    12.285787309     6.461837788
 C       -0.193500670    10.454567398     7.471626663
 C        0.041504457    11.887269396     4.739928374
 C       -8.811440060     0.894608531     0.586487939
 C       -6.275183304     0.354671335    -1.102284524
 C       -5.496844097    12.559810660     1.793551126
 C       -3.565491044    13.526051753    -0.417526271
 C       -0.660533656    -0.912056232    -1.536564435
 C       -0.650881824    -0.903505086     1.544375936
 H        1.115120510     2.699910496     0.734395181
 H        0.146804331     4.933469602     0.711635973
 H       -3.581170426     3.345049633    -0.733434128
 H       -2.653042707     1.092900444    -0.736704926
 H       -3.462898792     5.591302723    -0.379641414
 H       -0.810041191     6.821588787     0.644597391
 H       -0.843313723     9.184373868     0.937368014
 H       -1.955454364    11.348696128     0.841011046
 H       -5.598311451     9.359873730    -0.478074072
 H       -4.436930832     7.236834730    -0.415789164
 H       -6.997500919    12.710397115    -0.919598554
 H       -5.248518696    10.636046444    -2.466024273
 H       -6.085581714     9.757958095    -4.410120956
 H       -7.807258810     9.547362710    -6.128871601
 H      -10.309781286    12.306725453    -3.926092024
 H       -8.526844242    12.590522019    -2.279044530
 H      -12.328659679    10.741893106    -6.452230480
 H      -11.743939970    12.077422651    -5.443643050
 H      -11.859286793    10.421980609    -4.758313002
 H      -12.127976231     6.191092001    -8.323155507
 H      -12.378525100     5.823612725    -6.592580979
 H      -11.882145940     4.535751530    -7.741136249
 H       -8.020163640     6.610964984    -6.040472198
 H       -7.033988882     5.578763651    -4.056784278
 H      -10.201866821     2.665260974    -3.973361446
 H      -11.238513888     3.718975132    -5.913690740
 H       -6.991992193     3.992322795    -2.389664632
 H       -9.264329092     1.846732009    -2.356808931
 H       -8.196986626     4.521847709    -0.136804155
 H       -7.095186580     6.343631696     1.039414375
 H       -3.913165041     3.703014595     2.240423687
 H       -4.959912005     1.860512359     1.051488850
 H       -5.394054372     7.223992899     2.337129463
 H       -3.092060609     5.331417089     3.182138911
 H       -4.654197284     8.803340393     3.235194726
 H       -3.677722862    10.701465827     4.384921108
 H       -0.334879503     8.191472054     5.601023551
 H       -1.367650183     6.307724403     4.455898897
 H      -10.842694646     9.937106760    -7.944912052
 H       -9.111600950     9.773640944    -7.602208721
 H       -9.827960012     8.153877469    -5.616898299
 H      -11.439368862     8.170837423    -6.316094812
 H      -10.361538964     7.475066969    -8.601881739
 H       -8.825856854     7.269627771    -7.738258412
 H        2.263056656    -1.029096319    -0.037773591
 H        2.274199101     0.483379455     0.903593089
 H        2.256993923     0.541961696    -0.879443114
 H       -2.027753049    13.128553419     7.019589130
 H       -3.225795690    11.812814501     7.118375032
 H       -3.004424739    12.706192032     5.590105029
 H        0.601056678     9.756394775     7.077257521
 C        0.516057271    11.589998545     8.231456641
 C       -1.068947919     9.662073848     8.459499430
 H        0.462643144    12.779856190     5.284319126
 C        1.213180216    10.974489273     4.335022549
 C       -0.655855383    12.388579592     3.461646517
 H       -9.317759400     0.089543182    -0.020218131
 C       -8.187263389     0.236542527     1.829733600
 C       -9.887672433     1.898120100     1.038419578
 H       -5.733624537     0.036287150    -0.164689497
 C       -6.943531986    -0.892171835    -1.708549713
 C       -5.235014252     0.893294713    -2.100636754
 H       -6.177027302    13.445469519     1.634180051
 C       -6.340453632    11.406481905     2.365453884
 C       -4.427739588    12.962121989     2.824761554
 H       -2.789179727    13.576615378     0.399805717
 C       -2.844469709    13.218169647    -1.741786210
 C       -4.237012234    14.906809290    -0.521935216
 H       -1.782584414    -0.951286489    -1.416416175
 C       -0.353983777    -0.163976238    -2.846289069
 C       -0.151299334    -2.359609930    -1.654100113
 H       -0.199906953    -1.936465257     1.510888796
 C       -0.204485979    -0.229082438     2.854578974
 C       -2.183899053    -1.049375950     1.563758553
 H        1.215824756    12.160085232     7.606918172
 H        1.110931546    11.173838690     9.057541600
 H       -0.183731524    12.303226005     8.686746091
 H       -1.572031640     8.799685532     7.998900608
 H       -1.842395527    10.278507559     8.936740029
 H       -0.449675686     9.258449488     9.273093661
 H        1.826224013    10.649932056     5.185077264
 H        1.891809526    11.511213634     3.656676476
 H        0.885689383    10.074488110     3.794447714
 H       -1.443068555    13.127957298     3.657909957
 H       -1.100311408    11.571380784     2.873029797
 H        0.073026850    12.882962922     2.803886064
 H       -7.471899513    -0.560100614     1.588571730
 H       -8.972043998    -0.230431528     2.442125813
 H       -7.677370025     0.957711301     2.484977326
 H      -10.418250234     2.374727221     0.202924287
 H       -9.483911904     2.698741645     1.675139378
 H      -10.653159936     1.385760073     1.638143677
 H       -7.641768660    -1.390230062    -1.024210886
 H       -6.180110279    -1.640969892    -1.964971169
 H       -7.485698568    -0.677504837    -2.639698577
 H       -4.686636683     1.771210880    -1.731337914
 H       -5.677935613     1.169728609    -3.068597125
 H       -4.482570448     0.121601392    -2.316479128
 H       -7.154580734    11.089781278     1.699434087
 H       -6.816702359    11.716299652     3.306218179
 H       -5.739044275    10.515970653     2.600319581
 H       -3.906111351    13.891691203     2.563024169
 H       -3.665048907    12.183843681     2.978637871
 H       -4.895294054    13.138205862     3.804143422
 H       -2.287035025    12.270860071    -1.723906763
 H       -2.109516001    14.004244882    -1.964141896
 H       -3.527511753    13.182502936    -2.602643364
 H       -4.719784030    15.229345053     0.409149571
 H       -4.987874521    14.956305399    -1.323043772
 H       -3.485365068    15.673166873    -0.759927577
 H       -0.740505384     0.865525263    -2.858582742
 H       -0.824510395    -0.679821201    -3.695330366
 H        0.719485239    -0.115109249    -3.071786622
 H       -0.394480917    -2.979048681    -0.781315876
 H        0.933165764    -2.420452356    -1.815143099
 H       -0.617540867    -2.852203630    -2.519813631
 H        0.885549462    -0.152411012     2.956498701
 H       -0.551963145    -0.815095200     3.717431914
 H       -0.623165770     0.780207738     2.978598792
 H       -2.578927365    -1.607214012     0.705327343
 H       -2.703605471    -0.080989529     1.606929598
 H       -2.495961727    -1.605590407     2.459545687

