187   

Si        0.000000000     0.000000000     0.000000000
 C        1.865250763     0.000000000     0.000000000
 C       -0.671468498     1.713972404     0.000000000
 C        0.123812966     2.794714707    -0.394593296
 C       -0.389758713     4.091285155    -0.392771912
 C       -1.706942958     4.336999054     0.002741576
 C       -2.504330480     3.252791011     0.393352769
 C       -1.995896290     1.956960130     0.387942169
 C       -2.286339921     5.674910486     0.020640224
 C       -1.637584491     6.797679809    -0.332012945
 C       -2.231436780     8.129928695    -0.308712910
 C       -3.551652515     8.346858579     0.091435611
 C       -4.094060924     9.630332166     0.104260680
 C       -3.328208992    10.725134339    -0.303450721
 C       -2.004171924    10.512133338    -0.711379182
 C       -1.462081132     9.229780326    -0.709861401
Si       -4.018730276    12.429655371    -0.296582265
 C       -3.463206647    13.298748603    -1.809046761
 C       -3.216635409    12.643355438    -2.952442456
 C       -2.771370203    13.273050357    -4.195054131
 C       -2.550042427    12.464493013    -5.321264062
 C       -2.128132356    13.008988103    -6.522353758
 C       -2.025486689    14.409245390    -6.669919189
 C       -2.273958907    15.222697067    -5.549217378
 C       -2.612391128    14.652925811    -4.327528685
 N       -1.594822905    14.948560547    -7.897808781
 C       -2.069178446    14.293630377    -9.134300719
 C       -1.575380381    16.417943403    -8.004485427
 C       -3.529057603    13.804842403    -9.163290502
 C       -4.552937505    14.822779503    -8.628557235
 N       -5.915848626    14.259334109    -8.469290978
 C       -5.916716456    13.085389511    -7.651346244
 C       -5.656612502    13.262580206    -6.280898891
 C       -5.642224545    12.168151294    -5.431028787
 C       -5.915397675    10.876857362    -5.908236662
 C       -6.191561588    10.712466676    -7.266762398
 C       -6.197451953    11.801059517    -8.134254533
 C       -6.622040368    14.125324029    -9.756111695
 C       -5.885870514     9.757089692    -4.963169146
 C       -6.128522801     8.482247713    -5.296373049
Si       -6.097669432     7.067094695    -4.134969211
 C       -6.564999341     7.521958124    -2.415517308
 C       -7.283921588     8.692124983    -2.154124125
 C       -7.634221149     9.029718222    -0.848228472
 C       -7.295944015     8.197307614     0.221483064
 C       -6.593583226     7.014603336    -0.043557405
 C       -6.239620144     6.675370628    -1.347238186
 C       -7.647904976     8.522216303     1.599324025
 C       -8.318667227     9.627071925     1.967011828
 C       -8.678657293     9.967538706     3.338406786
 C       -8.351787820     9.156324942     4.427728062
 C       -8.716848342     9.522030181     5.723382862
 C       -9.407039525    10.715360942     5.957695977
 C       -9.731739504    11.533083234     4.866542340
 C       -9.372694225    11.162034513     3.574128876
Si       -9.897331351    11.215058432     7.660124318
 C       -9.073631245    10.151219990     8.952119154
 C       -9.409740851    13.039679585     7.899874666
 C      -11.784125679    11.059358950     7.855285725
 C       -7.277482682     5.725012302    -4.777248879
 C       -4.318596496     6.388424763    -4.094458138
 C       -5.923382475    12.409742566    -0.273831913
 C       -3.394290747    13.331327425     1.253953245
 C       -0.624964901    -0.910535405    -1.550192708
 C       -0.654109375    -0.911495541     1.537936252
 H        1.162821392     2.665311854    -0.710039183
 H        0.250295261     4.915302395    -0.702911384
 H       -3.533713210     3.422416402     0.703766771
 H       -2.664910686     1.150209936     0.699604421
 H       -3.328830800     5.716217452     0.351295269
 H       -0.596372345     6.762712288    -0.662724211
 H       -4.172908488     7.508825685     0.404866749
 H       -5.135732028     9.729289941     0.430363117
 H       -1.361843514    11.333918841    -1.044757264
 H       -0.431869035     9.083264067    -1.026612462
 H       -3.358126813    14.387879734    -1.728679414
 H       -3.317834742    11.549727552    -3.041937093
 H       -2.683692902    11.383126385    -5.244626818
 H       -1.888470264    12.353794227    -7.354819926
 H       -2.202429933    16.302681284    -5.616362300
 H       -2.775230766    15.304493117    -3.468439487
 H       -1.127189164    16.713746883    -8.968232526
 H       -0.919835998    16.831792641    -7.216419687
 H       -2.570616035    16.883187467    -7.923930981
 H       -6.735764810    15.130680470   -10.197562093
 H       -7.638801858    13.735323008    -9.573521060
 H       -6.121043502    13.477445149   -10.490417729
 H       -5.455260436    14.261168115    -5.895387636
 H       -5.420151883    12.320887831    -4.371375184
 H       -6.405592343     9.720821204    -7.664232713
 H       -6.407500433    11.639796774    -9.186749752
 H       -5.627817145    10.064978747    -3.938870681
 H       -6.361730097     8.202355149    -6.335401950
 H       -7.598847531     9.372190755    -2.953181812
 H       -8.188142671     9.950262478    -0.669683887
 H       -6.333885513     6.345252397     0.774352819
 H       -5.693556952     5.738874326    -1.495243631
 H       -7.324333025     7.790054719     2.343902342
 H       -8.640706155    10.357471666     1.218096720
 H       -7.808742274     8.225810870     4.272768110
 H       -8.437164437     8.845187088     6.535470968
 H      -10.268827194    12.477794970     4.990269434
 H       -9.634376345    11.809465940     2.739316357
 H       -1.893940526    14.979088265    -9.993164352
 H       -1.395797021    13.416716800    -9.303811762
 H       -3.788497858    13.519822693   -10.199784659
 H       -3.615654883    12.867105431    -8.572808247
 H       -4.240017325    15.195010575    -7.624499563
 H       -4.610447801    15.710461444    -9.291035193
 H        2.263466496    -1.028621487     0.060851952
 H        2.259729836     0.560812431     0.867043113
 H        2.275801108     0.461772307    -0.914861737
 H       -9.341013703    10.483783115     9.971110360
 H       -7.973053188    10.202570495     8.864926691
 H       -9.370407367     9.091767616     8.859745236
 H       -9.989789465    13.618638004     7.123530243
 C       -9.785095980    13.599610186     9.283259976
 C       -7.911199261    13.286264854     7.647543805
 H      -12.000576623    11.321386028     8.931395901
 C      -12.582091853    12.024999023     6.961078131
 C      -12.286139632     9.625836922     7.602621148
 H       -6.934761722     5.483016903    -5.824758429
 C       -7.231494509     4.427902592    -3.950579244
 C       -8.733661088     6.218541849    -4.853936047
 H       -4.330460316     5.519516109    -3.374408090
 C       -3.829410415     5.869079743    -5.457309283
 C       -3.320891707     7.433042668    -3.566528770
 H       -6.218613481    11.592768793     0.447794269
 C       -6.555962889    13.722008405     0.223216588
 C       -6.512395064    12.073201233    -1.654934753
 H       -3.853753580    14.360930680     1.225521789
 C       -3.838693307    12.641292758     2.556170756
 C       -1.863904333    13.493921052     1.270184384
 H       -0.146554522    -1.931828693    -1.520659648
 C       -2.152547885    -1.099367636    -1.573424787
 C       -0.193886712    -0.218292415    -2.856220825
 H       -1.778756273    -0.915634901     1.440505264
 C       -0.185229646    -2.374546918     1.630185472
 C       -0.297571179    -0.187071461     2.848675460
 H      -10.857176481    13.524302015     9.506528037
 H       -9.534950090    14.669324493     9.335449718
 H       -9.237672922    13.116683704    10.103606626
 H       -7.580267539    12.962544836     6.650190991
 H       -7.264646635    12.794210021     8.386255355
 H       -7.690056997    14.361284587     7.710393319
 H      -12.337162914    13.080976677     7.131359616
 H      -13.657897494    11.923597518     7.166425298
 H      -12.455432473    11.816808044     5.889378212
 H      -11.825395921     8.879018743     8.261968977
 H      -12.130072900     9.295252416     6.565636082
 H      -13.369129053     9.568549498     7.783655008
 H       -6.234743305     3.968797529    -3.915038403
 H       -7.899490710     3.675703003    -4.394296188
 H       -7.574878772     4.567844625    -2.915803106
 H       -8.859276936     7.113356911    -5.478820019
 H       -9.162048672     6.441906813    -3.866385789
 H       -9.372900536     5.441599546    -5.296410004
 H       -4.454053740     5.066817483    -5.868897841
 H       -2.818488152     5.447599467    -5.354039946
 H       -3.755461861     6.661098367    -6.214970628
 H       -3.577008525     7.817390909    -2.566108089
 H       -3.207783083     8.298631646    -4.233556548
 H       -2.322551550     6.983898057    -3.465394505
 H       -6.265683856    13.983784572     1.248829207
 H       -7.651716546    13.630595637     0.231529479
 H       -6.324768713    14.581027930    -0.419885192
 H       -6.150318275    11.114474910    -2.055060129
 H       -6.308255741    12.850980242    -2.405274407
 H       -7.606428218    11.991430623    -1.592887094
 H       -4.928676708    12.543933126     2.652198131
 H       -3.504156933    13.224979700     3.425505221
 H       -3.406681769    11.637011438     2.676676172
 H       -1.471945793    14.023133687     0.391337072
 H       -1.333946122    12.533317054     1.344279540
 H       -1.556833776    14.081389654     2.147010746
 H       -2.533369108    -1.673636754    -0.719364712
 H       -2.448221194    -1.657431962    -2.473735660
 H       -2.700137431    -0.147007808    -1.610659041
 H        0.894187822    -0.115390089    -2.957083002
 H       -0.635656013     0.781549301    -2.975134329
 H       -0.528036107    -0.806920983    -3.722583982
 H       -0.464708264    -2.976847750     0.756181777
 H       -0.648460160    -2.862645772     2.500061735
 H        0.900098338    -2.468524700     1.768107966
 H       -0.650235955     0.853832144     2.879172827
 H        0.781308714    -0.176134894     3.053214459
 H       -0.768908690    -0.696240566     3.701332022

