187   

Si        0.000000000     0.000000000     0.000000000
 C        1.865359623     0.000000000     0.000000000
 C       -0.685979702     1.708015186     0.000000000
 C        0.128742414     2.819564475     0.235824663
 C       -0.408900716     4.106910683     0.231969979
 C       -1.771262430     4.311377706    -0.000100053
 C       -2.587097673     3.195916110    -0.233587311
 C       -2.053040119     1.910718689    -0.234619677
 C       -2.379717886     5.637313966    -0.013984191
 C       -1.717692272     6.788932681     0.189739827
 C       -2.334479683     8.111413400     0.174094241
 C       -1.530126612     9.235541665     0.401617228
 C       -2.077086688    10.516654171     0.395620576
 C       -3.442249111    10.704402895     0.149418556
 C       -4.247669202     9.582423207    -0.078344916
 C       -3.699554676     8.301185092    -0.060203552
Si       -4.194869299    12.383323055     0.134721452
 C       -5.599686559    12.486195971    -1.031513641
 C       -5.698402392    11.756908504    -2.151295776
 C       -6.818689401    11.833131599    -3.089515428
 C       -6.803675490    11.015260317    -4.227971463
 C       -7.838544856    11.047371893    -5.148623986
 C       -8.916154181    11.944073099    -4.984506590
 C       -8.931091695    12.765561861    -3.840244099
 C       -7.908366560    12.688203357    -2.903963334
 N       -9.966304148    11.976199127    -5.919351120
 C       -9.660238095    11.556644962    -7.297883547
 C      -10.868879933    13.139386272    -5.867291052
 C       -8.680435789    12.501278257    -8.012626807
 C       -8.265635372    11.918196815    -9.373198469
 N       -7.458289732    12.850094076   -10.179784579
 C       -8.084937120    14.029388659   -10.622250461
 C       -9.480323402    14.062361541   -10.831238448
 C      -10.099033847    15.223029033   -11.266995363
 C       -9.357108375    16.376252009   -11.557976502
 C       -7.971431901    16.333305808   -11.381139385
 C       -7.337626609    15.183220954   -10.929599669
 C       -6.076387395    12.977319234    -9.684878967
 C      -10.063521885    17.573630268   -12.014646467
 C       -9.464578012    18.732217794   -12.322305991
Si      -10.354938248    20.224068129   -12.892354472
 C      -11.886875463    19.795335319   -13.816526737
 C      -11.923731890    18.630310523   -14.594373367
 C      -13.073808317    18.289410388   -15.300637078
 C      -14.210136530    19.108279212   -15.259154552
 C      -14.167428289    20.274064895   -14.489653161
 C      -13.018239781    20.616327138   -13.777404566
 C      -15.390975164    18.707671220   -16.016671734
 C      -16.544012761    19.396564351   -16.060162289
 C      -17.723712616    18.993790679   -16.818593918
 C      -17.763343977    17.827540148   -17.587093946
 C      -18.912419014    17.479848726   -18.297071548
 C      -20.047310935    18.295835601   -18.257856707
 C      -20.009888330    19.466577936   -17.488195862
 C      -18.863140820    19.808603891   -16.776894036
Si      -21.571627531    17.851220634   -19.189071172
 C      -21.252464259    16.478844773   -20.411728435
 C      -22.918604676    17.281750173   -17.970841392
 C      -22.193064164    19.406408694   -20.093707734
 C      -10.775509470    21.304266508   -11.383946292
 C       -9.205011102    21.206515294   -14.046366595
 C       -4.833571724    12.780965148     1.881778337
 C       -2.893693891    13.683065289    -0.351552571
 C       -0.657458781    -0.901188250    -1.542538338
 C       -0.604774982    -0.929528423     1.547282332
 H        1.201198460     2.722315358     0.425403881
 H        0.247410425     4.956006980     0.413656962
 H       -3.651079935     3.333231096    -0.417328015
 H       -2.737819198     1.079719362    -0.426545370
 H       -3.456626872     5.642649246    -0.208358324
 H       -0.641667582     6.786364704     0.385105826
 H       -0.465451221     9.109864054     0.588076209
 H       -1.401378016    11.354853341     0.585659697
 H       -5.322537680     9.669031374    -0.272410020
 H       -4.348212711     7.444686463    -0.235117064
 H       -6.373403797    13.218633289    -0.756956709
 H       -4.933079032    11.027109705    -2.453152416
 H       -5.968872797    10.331531151    -4.389610395
 H       -7.805110744    10.377767571    -6.002810318
 H       -9.745841308    13.461428011    -3.668073079
 H       -7.954589879    13.323789717    -2.018269982
 H      -11.611392340    13.081293701    -6.680842855
 H      -10.342900795    14.105066772    -5.948679789
 H      -11.433538520    13.116898136    -4.917581218
 H       -5.714741424    12.003937306    -9.312897734
 H       -5.967768829    13.718128411    -8.875484300
 H       -5.416756863    13.263159374   -10.524239395
 H      -10.085417680    13.180301709   -10.644195322
 H      -11.182048680    15.231153945   -11.398948779
 H       -7.368764263    17.215566661   -11.602429829
 H       -6.258952974    15.192943071   -10.810683240
 H      -11.151073047    17.429766657   -12.090717876
 H       -8.375087129    18.854457763   -12.229319905
 H      -11.064152394    17.955070953   -14.668254279
 H      -13.086048534    17.376850899   -15.893793185
 H      -15.035883652    20.928077331   -14.440926936
 H      -13.045051842    21.540792663   -13.194270515
 H      -15.280865969    17.772200156   -16.573303633
 H      -16.654594075    20.332216982   -15.504353099
 H      -16.892468054    17.176503715   -17.637340394
 H      -18.883039171    16.555349829   -18.880377051
 H      -20.866391528    20.143343598   -17.420620699
 H      -18.853570632    20.721306701   -16.184104149
 H       -9.260872340    10.517075991    -7.272171349
 H      -10.618961003    11.491814420    -7.861684562
 H       -9.141288456    13.499075081    -8.148121045
 H       -7.786767453    12.674684248    -7.382015891
 H       -7.677828743    10.982323932    -9.232215844
 H       -9.160476217    11.619579503    -9.965377112
 H        2.262341376    -1.030456348    -0.030603525
 H        2.274580196     0.487533774     0.902183859
 H        2.262130775     0.534553132    -0.882113896
 H      -22.162107888    16.245051676   -20.993263038
 H      -20.931034988    15.549582464   -19.909653871
 H      -20.463524726    16.764541746   -21.131034061
 H      -23.795581617    16.972508719   -18.610137172
 C      -22.483293385    16.063125659   -17.136412357
 C      -23.395191694    18.389386412   -17.014145424
 H      -22.405661373    20.168470621   -19.288368590
 C      -21.132794263    20.002464665   -21.037346997
 C      -23.495041528    19.178897065   -20.882190559
 H      -11.264747709    22.235574498   -11.791511101
 C      -11.770569186    20.616435048   -10.432098352
 C       -9.534003430    21.734408982   -10.581892167
 H       -8.288577624    21.455149840   -13.437350800
 C       -8.759065688    20.378976159   -15.265264920
 C       -9.825761844    22.525826086   -14.537522061
 H       -5.271848111    13.818943449     1.825568503
 C       -5.946554147    11.815765231     2.327973556
 C       -3.721558455    12.788095553     2.945126453
 H       -2.082911180    13.623648088     0.430713374
 C       -2.259849139    13.389675483    -1.723238532
 C       -3.444507504    15.120417267    -0.353784356
 H       -1.782126759    -0.900735583    -1.444479913
 C       -0.299039869    -0.170596090    -2.849358842
 C       -0.194132283    -2.365350524    -1.643038590
 H       -0.099632231    -1.938067800     1.511789903
 C       -0.187003880    -0.232356670     2.855094559
 C       -2.126022168    -1.161402427     1.577048552
 H      -22.203757789    15.194006530   -17.745592419
 H      -23.310766452    15.732901359   -16.492154632
 H      -21.640540647    16.284226635   -16.465625380
 H      -23.807445352    19.264634789   -17.531895486
 H      -22.603043683    18.738727613   -16.337013362
 H      -24.200699329    18.007337410   -16.370028722
 H      -20.187697521    20.244579890   -20.530308600
 H      -21.499388299    20.944631599   -21.469174494
 H      -20.894630222    19.346233804   -21.884873101
 H      -24.324461554    18.821017330   -20.258675672
 H      -23.373894092    18.473465452   -21.714894401
 H      -23.833034692    20.125373285   -21.328883296
 H      -12.714170442    20.331386173   -10.917615088
 H      -12.039380188    21.295796954    -9.611137924
 H      -11.355994860    19.712815977    -9.961948541
 H       -8.806469660    22.302337272   -11.175536554
 H       -9.005667288    20.885766914   -10.125108551
 H       -9.832491297    22.391894260    -9.752601118
 H       -8.252945806    19.441955553   -14.995412822
 H       -8.042891024    20.953497152   -15.869652738
 H       -9.592068976    20.124751380   -15.936539710
 H      -10.083868589    23.215839984   -13.724187298
 H      -10.728347402    22.373822505   -15.146757212
 H       -9.111203818    23.061660403   -15.179150118
 H       -6.807125916    11.796171415     1.645373234
 H       -6.338051994    12.119419823     3.309179360
 H       -5.592918950    10.781206374     2.445621267
 H       -2.931543655    13.523060931     2.745296415
 H       -3.242160782    11.806455285     3.069725547
 H       -4.142176812    13.049361422     3.927060143
 H       -1.790006935    12.398232265    -1.784506130
 H       -1.467227829    14.120186392    -1.937360236
 H       -2.980344652    13.464467230    -2.550683077
 H       -3.847817756    15.434679797     0.617195252
 H       -4.227538978    15.276424131    -1.109083579
 H       -2.639981382    15.829994990    -0.595405452
 H       -0.649949047     0.871054983    -2.874116821
 H       -0.772114251    -0.673946483    -3.704530504
 H        0.779616190    -0.161244976    -3.054307673
 H       -0.478388745    -2.972325365    -0.773785866
 H        0.891133513    -2.462852995    -1.778697761
 H       -0.656921765    -2.845769067    -2.517418358
 H        0.898290567    -0.101045280     2.952814835
 H       -0.502556630    -0.833756436     3.719730707
 H       -0.654093816     0.755139299     2.980483537
 H       -2.497728791    -1.728288261     0.714246211
 H       -2.699228427    -0.225746823     1.639769636
 H       -2.398611735    -1.746197113     2.467824979

