187   

Si        0.000000000     0.000000000     0.000000000
 C        1.865196856     0.000000000     0.000000000
 C       -0.684801814     1.708436220     0.000000000
 C        0.114406356     2.808366566    -0.327074873
 C       -0.417420484     4.097917798    -0.323137370
 C       -1.758581611     4.316607043     0.001788399
 C       -2.559255450     3.212759888     0.325019353
 C       -2.031354662     1.924821616     0.322966141
 C       -2.359363392     5.646053572     0.019456407
 C       -1.708487328     6.786182200    -0.267651746
 C       -2.314772427     8.113412130    -0.248327066
 C       -1.521758330     9.222760685    -0.569081731
 C       -2.058331941    10.508153535    -0.563482009
 C       -3.398731645    10.716403401    -0.218162414
 C       -4.192187603     9.609414904     0.105073244
 C       -3.656560375     8.322910653     0.083299309
Si       -4.139462899    12.400194082    -0.200426957
 C       -5.412985940    12.573394087     1.100848459
 C       -5.385827995    11.892977765     2.254702476
 C       -6.391686791    12.013127331     3.311549149
 C       -6.238829082    11.238226474     4.472091092
 C       -7.158517874    11.310121530     5.504683116
 C       -8.295501139    12.135699752     5.385754249
 C       -8.454315928    12.907855616     4.224301579
 C       -7.501771382    12.854245640     3.211853726
 N       -9.205956626    12.172886924     6.472357771
 C       -9.684953309    10.842589987     6.915777875
 C      -10.288253309    13.165969082     6.365485681
 C      -10.053289369     9.897574490     5.756224888
 C      -11.269954482     8.999317091     6.032846793
 N      -12.564770261     9.683273453     6.250433178
 C      -12.803026432    10.844932888     5.493173826
 C      -12.480131809    10.837430833     4.117739357
 C      -12.700885814    11.961755510     3.342531114
 C      -13.313071447    13.103806891     3.882048081
 C      -13.670972171    13.094341309     5.231106944
 C      -13.430406295    11.982718610     6.030909202
 C      -12.981008746     9.711698369     7.661618334
 C      -13.520330012    14.262478218     3.013932146
 C      -14.091403784    15.409311353     3.406321883
Si      -14.333063796    16.837286996     2.289332891
 C      -13.009108513    16.871382324     1.011293631
 C      -11.717899097    16.460599107     1.366872711
 C      -10.687687728    16.471297765     0.429509345
 C      -10.919620744    16.903615880    -0.879807321
 C      -12.209295588    17.321447431    -1.231057777
 C      -13.243292747    17.307941094    -0.296783988
 C       -9.867665956    16.929898974    -1.890667406
 C       -8.596531975    16.553848848    -1.670898015
 C       -7.535099509    16.574697634    -2.670823168
 C       -7.739196611    16.997348850    -3.986419998
 C       -6.689752198    16.998331437    -4.905674476
 C       -5.412580999    16.572630449    -4.527567578
 C       -5.206206710    16.151245733    -3.207593807
 C       -6.253013398    16.156597313    -2.290870212
Si       -4.011297521    16.564396354    -5.721541640
 C       -4.457164447    17.442537385    -7.305330999
 C       -2.485031022    17.427136819    -4.976339877
 C       -3.577746382    14.742983766    -6.060545853
 C      -16.047239444    16.720166569     1.476511793
 C      -14.244879995    18.434233008     3.317327899
 C       -2.790021781    13.713495811     0.078403137
 C       -4.947706576    12.708909634    -1.893795054
 C       -0.614158028    -0.921535628    -1.548276706
 C       -0.652341094    -0.909359837     1.540387734
 H        1.170473681     2.699886090    -0.588990773
 H        0.226471428     4.937597994    -0.578209837
 H       -3.606763735     3.361090480     0.580514477
 H       -2.704461090     1.103164415     0.583490375
 H       -3.419032614     5.664451514     0.291424205
 H       -0.649414275     6.769820056    -0.540209637
 H       -0.474901514     9.081633798    -0.830260384
 H       -1.394029292    11.333476382    -0.833303711
 H       -5.247720599     9.712570759     0.379691334
 H       -4.296003560     7.478044173     0.332524778
 H       -6.212398470    13.296582039     0.880546753
 H       -4.592351359    11.171301217     2.498546248
 H       -5.375814842    10.578821683     4.570206798
 H       -7.006020013    10.730702129     6.411468811
 H       -9.323612476    13.547482543     4.095832806
 H       -7.641302200    13.468964499     2.321504820
 H      -10.842377682    13.202630852     7.318218776
 H      -11.010771655    12.958666067     5.556573341
 H       -9.851328661    14.167966934     6.208559912
 H      -12.855610045     8.707310674     8.101953776
 H      -14.060501978     9.945367107     7.717165770
 H      -12.429235559    10.436958145     8.280316996
 H      -12.060567922     9.941814065     3.665665876
 H      -12.414625385    11.949150191     2.289078629
 H      -14.152401588    13.967997074     5.672770131
 H      -13.719659322    12.017654510     7.075669927
 H      -13.150787093    14.103018511     1.989651834
 H      -14.466776850    15.545877073     4.430324911
 H      -11.475108288    16.116098781     2.378842294
 H       -9.694368676    16.140280580     0.729065907
 H      -12.410045318    17.661877627    -2.245028799
 H      -14.228966447    17.645539134    -0.627517766
 H      -10.183188246    17.287317079    -2.874476051
 H       -8.285550202    16.196670382    -0.683579204
 H       -8.724330815    17.331053554    -4.306270152
 H       -6.909366998    17.342906528    -5.919797304
 H       -4.227330426    15.803069080    -2.860741032
 H       -6.073940239    15.836361554    -1.264706701
 H       -8.877410271    10.393125081     7.537258813
 H      -10.549528436    10.986307786     7.597659842
 H      -10.222288345    10.493930817     4.834851423
 H       -9.183875057     9.256929558     5.508350323
 H      -11.420868288     8.318279964     5.158503241
 H      -11.055149237     8.338340570     6.900756727
 H        2.262595765    -1.029615701     0.047907603
 H        2.261140868     0.549594928     0.873361073
 H        2.275360370     0.472599266    -0.909593424
 H       -3.612799722    17.435492488    -8.017509885
 H       -4.728343129    18.497177389    -7.120603298
 H       -5.313612629    16.956411280    -7.805928999
 H       -1.775767761    17.569437209    -5.843073033
 C       -2.824756229    18.815821430    -4.404436554
 C       -1.745034266    16.617963890    -3.895738634
 H       -3.261269868    14.317485264    -5.062584417
 C       -4.784646322    13.928049296    -6.558982581
 C       -2.409405270    14.561816737    -7.044781393
 H      -16.144792154    17.633443564     0.820997942
 C      -16.187199478    15.472957907     0.585229924
 C      -17.203605390    16.739018911     2.492091233
 H      -15.073481498    18.361055653     4.079509762
 C      -12.910596291    18.568490623     4.073439576
 C      -14.475595751    19.704259814     2.480186849
 H       -2.083297358    13.627712409    -0.796684334
 C       -3.329170921    15.154440376     0.114734492
 C       -1.990194223    13.454527528     1.368272717
 H       -5.264805040    13.792301780    -1.902770314
 C       -3.976001782    12.484674444    -3.064832603
 C       -6.205484165    11.850988817    -2.115792227
 H       -0.119763763    -1.935211100    -1.516568134
 C       -2.138243409    -1.135223746    -1.572750278
 C       -0.192961245    -0.225255518    -2.855374134
 H       -1.776880581    -0.917087999     1.442495420
 C       -0.178700025    -2.370512133     1.637330492
 C       -0.298854519    -0.179516401     2.848952229
 H       -3.276422664    19.493153588    -5.141055386
 H       -1.910308365    19.313404447    -4.051278383
 H       -3.503904179    18.768153534    -3.540906338
 H       -1.450130431    15.613534061    -4.224916970
 H       -2.323236498    16.513388654    -2.967626150
 H       -0.814268897    17.133661662    -3.616911671
 H       -5.648124739    13.969370501    -5.879445313
 H       -4.512173416    12.866310811    -6.647541830
 H       -5.132024326    14.239901914    -7.552795189
 H       -1.486870414    15.062476571    -6.723642403
 H       -2.644185315    14.914330394    -8.057841787
 H       -2.162338810    13.494272275    -7.141331574
 H      -15.430272030    15.415335911    -0.209149351
 H      -17.163549231    15.476927571     0.080573123
 H      -16.138550624    14.533322473     1.154870606
 H      -17.219581724    17.639565915     3.119000613
 H      -17.200579759    15.865312458     3.158828009
 H      -18.167669798    16.717220942     1.963468685
 H      -12.696773850    17.719330472     4.736778422
 H      -12.928019779    19.462767901     4.712464864
 H      -12.049474937    18.689995485     3.400391741
 H      -15.453808272    19.726882455     1.983098880
 H      -13.705509782    19.855806841     1.710175923
 H      -14.439628046    20.592981815     3.127004202
 H       -3.831323709    15.455413099    -0.813405532
 H       -2.499844648    15.862286079     0.257434766
 H       -4.024893440    15.329521841     0.947445884
 H       -1.523719407    12.460590186     1.405652249
 H       -2.599674651    13.564113448     2.277272951
 H       -1.170700480    14.181211496     1.458103735
 H       -3.088407390    13.128633315    -3.026645550
 H       -4.482759939    12.708801396    -4.016743825
 H       -3.630335577    11.444251360    -3.143003991
 H       -6.974427060    11.994046803    -1.344537827
 H       -5.987135309    10.775822957    -2.173083185
 H       -6.678283810    12.121202314    -3.071675206
 H       -2.512282237    -1.706502610    -0.713810568
 H       -2.422483931    -1.707456377    -2.467932791
 H       -2.700785483    -0.192151657    -1.622148282
 H        0.893332215    -0.104854512    -2.955742219
 H       -0.650668807     0.767130589    -2.976965846
 H       -0.516844207    -0.821014333    -3.720805977
 H       -0.455626007    -2.976360683     0.764940687
 H       -0.640782783    -2.857572676     2.508383873
 H        0.906841410    -2.460510198     1.776149002
 H       -0.657188248     0.859549766     2.876556327
 H        0.779906344    -0.162528481     3.053328355
 H       -0.767474086    -0.688610148     3.703156367

