187   

Si        0.000000000     0.000000000     0.000000000
 C        1.865452849     0.000000000     0.000000000
 C       -0.675767187     1.712388412     0.000000000
 C        0.147468119     2.813063038     0.257901139
 C       -0.375274741     4.106078827     0.255342943
 C       -1.731371885     4.328349663     0.002229535
 C       -2.555642298     3.224167160    -0.252968172
 C       -2.036251629     1.932521195    -0.254693782
 C       -2.320903012     5.663169525    -0.010366292
 C       -1.641362512     6.800506500     0.214736301
 C       -2.227398926     8.136752262     0.202950044
 C       -3.583459660     8.363104243    -0.049834934
 C       -4.101132948     9.657697621    -0.051257365
 C       -3.267818614    10.755581861     0.187955043
 C       -1.908338769    10.533022229     0.440013473
 C       -1.397302796     9.237716841     0.451609604
Si       -3.936870219    12.469017280     0.189115684
 C       -2.588488546    13.654250033    -0.151820410
 C       -2.306436337    14.751966665     0.561881222
 C       -1.213087407    15.673946706     0.249330436
 C       -1.011881147    16.793013270     1.068843622
 C        0.009085097    17.695201394     0.815086367
 C        0.841578289    17.535733903    -0.313441523
 C        0.637681250    16.412278667    -1.138333270
 C       -0.358103901    15.491522849    -0.841417571
 N        1.877622220    18.451874192    -0.570299067
 C        1.703554201    19.827969956    -0.073627337
 C        2.488152401    18.406429877    -1.910460192
 C        0.527247888    20.564185755    -0.734678916
 C        0.343233027    21.955803547    -0.108365890
 N       -0.712610393    22.749757802    -0.761249178
 C       -0.513028901    23.100500659    -2.109598430
 C        0.793373610    23.265624093    -2.617487369
 C        0.993575220    23.610909380    -3.944466357
 C       -0.087792193    23.855855061    -4.802096382
 C       -1.381300459    23.723724266    -4.289724487
 C       -1.599488984    23.359890118    -2.967477128
 C       -2.066839108    22.308631869    -0.383966022
 C        0.180745530    24.217168016    -6.194712873
 C       -0.770623414    24.473073844    -7.102926541
Si       -0.439894679    24.924788854    -8.843639577
 C        1.151002578    25.827742519    -9.037669883
 C        1.627698258    26.636039744    -7.999138720
 C        2.831660254    27.325519669    -8.133453083
 C        3.578672498    27.235524183    -9.311486565
 C        3.094852679    26.433822259   -10.353408897
 C        1.894624000    25.739799290   -10.220708006
 C        4.843547440    27.939198267    -9.496336813
 C        5.415897449    28.736855382    -8.578701861
 C        6.680605244    29.441080649    -8.762181835
 C        7.431485753    29.349111259    -9.936814916
 C        8.635988627    30.040033880   -10.069313043
 C        9.119941305    30.833220378    -9.024311973
 C        8.369155719    30.926000596    -7.844397306
 C        7.164457481    30.240394735    -7.717507140
Si       10.707531834    31.751574745    -9.182577983
 C       11.671711164    31.201768578   -10.681917637
 C       10.353627966    33.615437514    -9.336252885
 C       11.724970866    31.455807019    -7.601072757
 C       -0.424083512    23.339545164    -9.895585081
 C       -1.854317068    26.044517765    -9.447533898
 C       -5.251186885    12.642075960    -1.176324330
 C       -4.755878768    12.812475423     1.870421571
 C       -0.658229034    -0.899412924    -1.543152634
 C       -0.611259427    -0.925546508     1.546920520
 H        1.215696134     2.702555074     0.464031366
 H        0.287848581     4.945875707     0.455276619
 H       -3.614728777     3.375026350    -0.453004235
 H       -2.727291117     1.110792460    -0.462698196
 H       -3.393665126     5.687933334    -0.222287595
 H       -0.568291294     6.774421983     0.426906509
 H       -4.249355325     7.525035161    -0.245919810
 H       -5.170074638     9.772647967    -0.249974264
 H       -1.212328580    11.355726360     0.635370287
 H       -0.339100208     9.082373125     0.653661091
 H       -1.996572080    13.390540344    -1.044575878
 H       -2.879774872    15.047168839     1.450196953
 H       -1.660454187    16.953979853     1.930567060
 H        0.155840858    18.530550988     1.493086864
 H        1.261135942    16.244162072    -2.010855167
 H       -0.480758645    14.620400587    -1.487723949
 H        3.255160052    19.193380469    -2.004859996
 H        1.759393792    18.534513542    -2.727985704
 H        3.006728177    17.439116347    -2.039767717
 H       -2.089873296    22.024478138     0.681400301
 H       -2.430254773    21.453544767    -0.977662256
 H       -2.769351052    23.153256213    -0.503436449
 H        1.655729356    23.115231758    -1.974905136
 H        2.012941568    23.707766173    -4.321155625
 H       -2.241951496    23.909390560    -4.934231301
 H       -2.620930111    23.270455083    -2.611992906
 H        1.253800877    24.265692571    -6.429113678
 H       -1.838422499    24.407502657    -6.844282576
 H        1.081715484    26.751492518    -7.056374167
 H        3.184757248    27.941780967    -7.308503689
 H        3.660390710    26.351146828   -11.279442175
 H        1.567715642    25.130882008   -11.067817572
 H        5.321341247    27.774653456   -10.466478161
 H        4.937092241    28.902072102    -7.608947622
 H        7.079242759    28.735111853   -10.763569196
 H        9.177614037    29.930733343   -11.012945884
 H        8.698221865    31.530139210    -6.994053330
 H        6.594318475    30.326596028    -6.794406164
 H        1.575398486    19.791090757     1.032321700
 H        2.654614548    20.382391559    -0.244231056
 H        0.695886833    20.654736987    -1.825566692
 H       -0.402203369    19.971086733    -0.632100282
 H        0.092888570    21.865643947     0.973186048
 H        1.294338009    22.534713903    -0.146082250
 H        2.263318825    -1.029696647    -0.042225923
 H        2.274820056     0.477476750     0.907485665
 H        2.261621704     0.544544707    -0.876325292
 H       12.641615775    31.726712549   -10.745870240
 H       11.122356861    31.403549005   -11.618149137
 H       11.883525687    30.117870432   -10.641422252
 H       11.359176557    34.103824354    -9.490543267
 C        9.469007043    33.948800450   -10.551606401
 C        9.714309268    34.230483651    -8.078486334
 H       11.097308025    31.852879890    -6.750898363
 C       11.981972338    29.960973725    -7.337570666
 C       13.068452167    32.206344964    -7.585740201
 H       -0.289499348    23.673789806   -10.964684811
 C        0.748390877    22.410604977    -9.532733548
 C       -1.737743970    22.542231545    -9.809961496
 H       -2.802229011    25.446174124    -9.320921370
 C       -1.981493293    27.326197662    -8.604602891
 C       -1.728026781    26.431873495   -10.931171473
 H       -6.072341774    11.914659796    -0.912483098
 C       -5.866823748    14.050789410    -1.243256256
 C       -4.710225231    12.263876535    -2.566689772
 H       -5.056705239    13.899910105     1.852822794
 C       -6.022330359    11.972358556     2.113935127
 C       -3.788265859    12.600391534     3.049201285
 H       -1.783071094    -0.893627362    -1.447805362
 C       -0.293443986    -0.171578014    -2.849721110
 C       -0.201354302    -2.365771631    -1.641303194
 H       -0.112772001    -1.937284714     1.512717244
 C       -0.190747912    -0.230100274     2.854738902
 C       -2.134237219    -1.146222014     1.574149558
 H        9.896377640    33.617759950   -11.506827347
 H        9.337871327    35.037256456   -10.634921974
 H        8.458348515    33.522662008   -10.474021800
 H       10.320351524    34.101311716    -7.172890315
 H        8.710234188    33.833352078    -7.873143053
 H        9.591801119    35.315266192    -8.212475338
 H       11.059128998    29.366360963    -7.277473501
 H       12.494232078    29.830463486    -6.373668426
 H       12.626205935    29.495786766    -8.095342933
 H       12.960604052    33.293199945    -7.695324418
 H       13.762074428    31.858928340    -8.362861028
 H       13.578091048    32.043745057    -6.624802709
 H        1.731929759    22.891671329    -9.626717510
 H        0.764712956    21.542048207   -10.205834663
 H        0.674158720    22.008502347    -8.511892623
 H       -2.617822240    23.115861036   -10.127211768
 H       -1.936166575    22.153128810    -8.801353855
 H       -1.688682467    21.665734615   -10.472103066
 H       -2.130942910    27.131618552    -7.533718599
 H       -2.851133829    27.911011520    -8.936092638
 H       -1.110129021    27.989834157    -8.702453342
 H       -1.726549540    25.568594679   -11.608636408
 H       -0.827511737    27.025990090   -11.143495531
 H       -2.582837423    27.055289487   -11.231149335
 H       -6.353072794    14.358403515    -0.308654535
 H       -6.643931856    14.085584719    -2.020040373
 H       -5.133243954    14.826033864    -1.507542716
 H       -4.289176887    11.249394920    -2.609208145
 H       -3.940332874    12.958431980    -2.930015322
 H       -5.522451007    12.289850602    -3.306901954
 H       -6.810247533    12.146174014     1.370183887
 H       -6.460934170    12.228159325     3.089441764
 H       -5.820503257    10.892223669     2.144730798
 H       -2.868511133    13.196795125     2.976529816
 H       -3.488296057    11.549124681     3.169103771
 H       -4.272028838    12.891551936     3.992024742
 H       -0.638430098     0.872051526    -2.875783743
 H       -0.767574955    -0.672670487    -3.705615831
 H        0.785667090    -0.168227890    -3.052633897
 H       -0.491685984    -2.970829670    -0.772702797
 H        0.883934531    -2.468485690    -1.772894651
 H       -0.663069046    -2.844680731    -2.517047302
 H        0.895422533    -0.107904220     2.954686902
 H       -0.513288445    -0.827507428     3.719531876
 H       -0.649753161     0.761493373     2.977741861
 H       -2.509620848    -1.706628540     0.708685305
 H       -2.700144420    -0.206253258     1.639687135
 H       -2.412393287    -1.732481652     2.462175150

