187   

Si        0.000000000     0.000000000     0.000000000
 C        1.865092661     0.000000000     0.000000000
 C       -0.684152120     1.708471862     0.000000000
 C        0.116958720     2.808558468    -0.321670276
 C       -0.414433708     4.098320843    -0.317807242
 C       -1.755375320     4.316545794     0.007291377
 C       -2.558013609     3.212943560     0.326357480
 C       -2.031480226     1.924638186     0.319990906
 C       -2.356172842     5.645061831     0.025129276
 C       -1.707977319     6.786917002    -0.261563427
 C       -2.325388161     8.108813373    -0.238729504
 C       -1.546008628     9.228829300    -0.557175605
 C       -2.098366035    10.507624830    -0.546736498
 C       -3.453527815    10.689926411    -0.247612982
 C       -4.234752326     9.572208414     0.066844835
 C       -3.673023319     8.297465880     0.082128885
Si       -4.217592727    12.364774858    -0.224464809
 C       -6.032369363    12.144106423    -0.337438781
 C       -6.926561861    12.718091875     0.477161507
 C       -8.376424683    12.534022467     0.376996158
 C       -9.197491436    13.198864243     1.300629992
 C      -10.575501271    13.061680538     1.253566312
 C      -11.165690770    12.254308212     0.265682952
 C      -10.357122320    11.613510898    -0.678079215
 C       -8.975455888    11.778464410    -0.633952875
 N      -12.595507837    12.172072371     0.294547160
 C      -13.068785455    11.244902608     1.350734367
 C      -13.223357328    11.922756017    -1.014736354
 C      -12.852649141     9.748634616     1.048670141
 C      -12.321778436     8.940661589     2.249264033
 N      -10.849261277     8.893135921     2.393515666
 C      -10.127709796     8.587677494     1.219253156
 C      -10.639090150     7.624155575     0.323329718
 C       -9.949051422     7.307443197    -0.835667667
 C       -8.712724229     7.899226333    -1.127696917
 C       -8.185984774     8.816694036    -0.215381807
 C       -8.862439267     9.140371151     0.953295594
 C      -10.318078957     9.996545572     3.213255246
 C       -8.022825113     7.531606870    -2.364924932
 C       -6.840316105     8.035708363    -2.739563133
Si       -5.929872021     7.617092349    -4.269899018
 C       -5.479718698     9.223592574    -5.052875675
 C       -6.202542320    10.373300978    -4.712900738
 C       -5.887203791    11.603186120    -5.287092102
 C       -4.849241362    11.711181044    -6.216953902
 C       -4.135056464    10.556995858    -6.564373258
 C       -4.450791676     9.324878412    -5.996091413
 C       -4.489339927    12.980510961    -6.839548887
 C       -5.100664807    14.150215295    -6.586109212
 C       -4.749653594    15.424804770    -7.202177443
 C       -3.719268494    15.552637007    -8.136925148
 C       -3.418026545    16.792332124    -8.700899774
 C       -4.145872591    17.931694390    -8.343832946
 C       -5.179552234    17.806047252    -7.405693556
 C       -5.474547069    16.568552824    -6.840933672
Si       -3.761168799    19.574943959    -9.078675204
 C       -2.629492866    19.419438755   -10.553387271
 C       -5.399677766    20.397462841    -9.590719403
 C       -2.915641893    20.669997227    -7.771044728
 C       -4.363939557     6.630329419    -3.830490615
 C       -6.991694633     6.588122467    -5.460897048
 C       -3.721079791    13.278671021     1.363373784
 C       -3.623045081    13.356482659    -1.736300946
 C       -0.615616051    -0.918742169    -1.549395606
 C       -0.653952181    -0.909067378     1.539642645
 H        1.173690095     2.699945844    -0.580461752
 H        0.230091259     4.938208513    -0.570346417
 H       -3.605738884     3.361596264     0.582577397
 H       -2.705617204     1.102462526     0.576320051
 H       -3.416310007     5.661960511     0.299250329
 H       -0.649550248     6.776355810    -0.534112748
 H       -0.495162694     9.102337516    -0.808830673
 H       -1.440779736    11.346578981    -0.789462908
 H       -5.296473736     9.656240355     0.323164751
 H       -4.300263908     7.444570101     0.338258222
 H       -6.349613649    11.495814817    -1.171843030
 H       -6.637031562    13.380113965     1.303890765
 H       -8.749224943    13.829510193     2.067947580
 H      -11.212163744    13.588292787     1.962322633
 H      -10.796386689    10.987695168    -1.450755736
 H       -8.361143758    11.289189172    -1.392702426
 H      -14.311243508    12.080288156    -0.914048732
 H      -13.055603626    10.916155681    -1.426620626
 H      -12.848537266    12.665285196    -1.741234836
 H      -10.950916257    10.140190445     4.103708757
 H      -10.249683881    10.956604721     2.671883131
 H       -9.311338445     9.721948587     3.577953559
 H      -11.580241168     7.126796165     0.538252650
 H      -10.373630869     6.575340869    -1.522409243
 H       -7.216651029     9.282639584    -0.408544190
 H       -8.412206328     9.857382561     1.635540852
 H       -8.573784319     6.796863851    -2.964635868
 H       -6.299953448     8.759442259    -2.103780983
 H       -7.028041488    10.351644099    -3.992718451
 H       -6.463763803    12.483319977    -5.006152826
 H       -3.326074688    10.619978652    -7.289061437
 H       -3.866936824     8.455637584    -6.310538773
 H       -3.662700008    12.925216373    -7.553100969
 H       -5.928539074    14.201709013    -5.872090028
 H       -3.140684324    14.680122736    -8.434603261
 H       -2.601425547    16.830030963    -9.427066325
 H       -5.782606184    18.661993403    -7.089717005
 H       -6.280325487    16.490800279    -6.113159101
 H      -12.563529765    11.528393490     2.300588122
 H      -14.151140832    11.453335421     1.502828701
 H      -13.801092702     9.300188393     0.700678049
 H      -12.154560277     9.637962713     0.192459226
 H      -12.762823485     9.319302175     3.196577155
 H      -12.667207103     7.882028431     2.163747568
 H        2.262580991    -1.029419918     0.051363088
 H        2.261020275     0.552529387     0.871558508
 H        2.275139691     0.469651162    -0.911156668
 H       -2.437479852    20.405069445   -11.013759414
 H       -3.077272697    18.772662853   -11.329662385
 H       -1.652642716    18.986220567   -10.275814304
 H       -6.003603851    20.500377690    -8.642482594
 C       -5.220081728    21.803578743   -10.189954905
 C       -6.210617631    19.533226799   -10.573099102
 H       -2.651936139    21.630145086    -8.301749859
 C       -3.822915212    21.019049661    -6.577726466
 C       -1.613561504    20.047448221    -7.234435947
 H       -4.042777631     6.107729127    -4.777098031
 C       -3.204645147     7.531586499    -3.375664391
 C       -4.620336192     5.557016988    -2.757852506
 H       -7.314842940     5.675874489    -4.880496035
 C       -8.255855155     7.338160672    -5.921245568
 C       -6.225446829     6.110342968    -6.707809303
 H       -4.299958823    14.247287333     1.361619396
 C       -4.098995942    12.494183901     2.634034000
 C       -2.222388420    13.623860163     1.428443536
 H       -2.588678476    13.726397130    -1.479772863
 C       -3.514700696    12.495432999    -3.004617477
 C       -4.506866862    14.580074715    -2.036179604
 H       -0.123484703    -1.933571258    -1.519068265
 C       -2.140215105    -1.128943129    -1.574433195
 C       -0.192907019    -0.221565434    -2.855575223
 H       -1.778520686    -0.915846770     1.441083043
 C       -0.181693888    -2.370665018     1.636347820
 C       -0.300847882    -0.179830913     2.848587033
 H       -4.707042983    22.501552612    -9.515752092
 H       -6.202934584    22.248782355   -10.402880652
 H       -4.674254211    21.796490206   -11.142731687
 H       -6.425013122    18.525325049   -10.189502092
 H       -5.720803876    19.418005387   -11.549070584
 H       -7.186188314    20.000291676   -10.769785517
 H       -4.743777885    21.540684912    -6.867655082
 H       -3.293491891    21.693069377    -5.888457849
 H       -4.105974034    20.137577772    -5.985262538
 H       -0.872794359    19.841889047    -8.017831707
 H       -1.783454928    19.111154529    -6.683488083
 H       -1.129662950    20.736702795    -6.527592956
 H       -2.838678851     8.203724715    -4.161921132
 H       -2.345125909     6.918538270    -3.066894973
 H       -3.456308603     8.157306301    -2.505437027
 H       -5.377418704     4.818995689    -3.049586813
 H       -4.923536597     5.984942794    -1.791545654
 H       -3.696212599     4.990912442    -2.563924674
 H       -8.885598381     7.691413345    -5.093538287
 H       -8.887582029     6.675859239    -6.529249451
 H       -8.026108733     8.208813710    -6.552368260
 H       -5.367942204     5.466737123    -6.473248475
 H       -5.863620523     6.939192791    -7.332271004
 H       -6.888374437     5.512061276    -7.349584636
 H       -5.164379999    12.232930887     2.691852834
 H       -3.878667595    13.094450022     3.527759837
 H       -3.526683751    11.561264246     2.742508711
 H       -1.888286637    14.275764401     0.611144336
 H       -1.577500826    12.733811973     1.434759250
 H       -2.001924872    14.166101122     2.359624390
 H       -2.804263824    11.662934190    -2.912355551
 H       -3.163313016    13.103866691    -3.850888422
 H       -4.476608018    12.064991349    -3.320600915
 H       -4.569107340    15.289525954    -1.201911349
 H       -5.533196170    14.306955502    -2.319740401
 H       -4.092813680    15.141630702    -2.887151964
 H       -2.515451199    -1.701071603    -0.716511756
 H       -2.425752107    -1.698900815    -2.470598990
 H       -2.700717982    -0.184553977    -1.621990715
 H        0.893682939    -0.103509541    -2.955663839
 H       -0.648329798     0.772024843    -2.975673565
 H       -0.517985513    -0.815434466    -3.721816524
 H       -0.458456344    -2.975922822     0.763516172
 H       -0.644954823    -2.857661509     2.506838709
 H        0.903634694    -2.461734687     1.776061528
 H       -0.658136423     0.859653590     2.876114030
 H        0.777699487    -0.164093142     3.054067170
 H       -0.770970187    -0.688460394     3.702306324

