187   

Si        0.000000000     0.000000000     0.000000000
 C        1.865042493     0.000000000     0.000000000
 C       -0.682270129     1.709676077     0.000000000
 C        0.104582634     2.798695759    -0.388387259
 C       -0.420799633     4.090705563    -0.385275019
 C       -1.743993603     4.323030828    -0.001228925
 C       -2.532811492     3.230172116     0.382389948
 C       -2.010934492     1.939653870     0.381511779
 C       -2.336585599     5.656220181     0.017732583
 C       -1.693272142     6.785548606    -0.323653006
 C       -2.287841227     8.117960930    -0.303977702
 C       -3.611819061     8.346177810     0.080824549
 C       -4.140491898     9.636527124     0.085170520
 C       -3.358903505    10.726184622    -0.311741941
 C       -2.031750055    10.500283885    -0.700565298
 C       -1.503049533     9.212392111    -0.690940792
Si       -4.031683999    12.438320971    -0.315338537
 C       -3.316430690    13.447412073    -1.662170733
 C       -2.902728076    12.948507044    -2.834949333
 C       -2.329793416    13.751892851    -3.915583010
 C       -1.933315731    13.112844751    -5.098063035
 C       -1.385088032    13.827071043    -6.151925104
 C       -1.264897294    15.231159128    -6.079259039
 C       -1.666799337    15.873969097    -4.891294125
 C       -2.166480863    15.137308817    -3.826031228
 N       -0.709996685    15.963940600    -7.143547610
 C       -0.733605908    15.349700756    -8.481701194
 C       -0.999932827    17.408391181    -7.174508502
 C       -2.153668612    15.160757005    -9.039365981
 C       -2.114299655    14.340952715   -10.339144103
 N       -3.445078893    14.131966563   -10.933327873
 C       -4.129680630    15.260228676   -11.416827808
 C       -3.422872844    16.409712374   -11.830165691
 C       -4.102999404    17.519769708   -12.306235101
 C       -5.497842744    17.515379544   -12.440821586
 C       -6.194463704    16.364127268   -12.061335721
 C       -5.531121060    15.251031482   -11.563798350
 C       -4.244350543    13.132150629   -10.203420567
 C       -6.167320998    18.714164463   -12.948595166
 C       -7.492216428    18.817637496   -13.116157005
Si       -8.385714292    20.282548680   -13.744017225
 C       -9.774858908    20.690960302   -12.609328993
 C       -9.728200624    20.289390284   -11.268516988
 C      -10.776815439    20.595687742   -10.404879885
 C      -11.889350628    21.318292292   -10.855263042
 C      -11.929158593    21.722825771   -12.192725466
 C      -10.883597169    21.414062517   -13.061712362
 C      -12.962780907    21.614690463    -9.912251380
 C      -14.082499090    22.292938267   -10.215662195
 C      -15.156021276    22.589456854    -9.272901230
 C      -15.118107478    22.186009153    -7.935737325
 C      -16.167174918    22.491295912    -7.068586602
 C      -17.282869136    23.200832792    -7.523609031
 C      -17.323958077    23.605308420    -8.864913160
 C      -16.272443426    23.305107263    -9.726217094
Si      -18.675693882    23.611722525    -6.392232844
 C      -18.569904483    22.651206877    -4.796648655
 C      -18.639108605    25.471865001    -5.990196838
 C      -20.307922813    23.218287012    -7.289275554
 C       -7.235924826    21.790787745   -13.882004088
 C       -9.069200336    19.877447190   -15.473176247
 C       -5.923722797    12.405019261    -0.511618809
 C       -3.605057670    13.264800170     1.344194758
 C       -0.620289209    -0.916982200    -1.548372988
 C       -0.650270548    -0.913372688     1.538918510
 H        1.146440954     2.679636716    -0.698394178
 H        0.213899559     4.921676989    -0.687652196
 H       -3.566180603     3.388960817     0.684842610
 H       -2.674334409     1.127022007     0.690570457
 H       -3.381512574     5.687241098     0.340257381
 H       -0.648324263     6.755320400    -0.645870957
 H       -4.243134076     7.513699907     0.385433356
 H       -5.179868326     9.752590734     0.404055388
 H       -1.374083400    11.316504217    -1.018983558
 H       -0.468699278     9.056763869    -0.991840942
 H       -3.260896078    14.525242175    -1.448121075
 H       -2.956297235    11.876955215    -3.075687945
 H       -2.044768603    12.031348963    -5.189850597
 H       -1.058413424    13.290445010    -7.037329317
 H       -1.577710926    16.950581972    -4.787348790
 H       -2.451570899    15.659064657    -2.911091263
 H       -0.596898355    17.860572851    -8.095830263
 H       -0.486385442    17.898077895    -6.327134868
 H       -2.077261277    17.637438552    -7.120648647
 H       -3.592002336    12.338672821    -9.802265157
 H       -4.943365104    12.645245828   -10.907628662
 H       -4.820361129    13.560535922    -9.366235147
 H       -2.339309052    16.441043004   -11.770485163
 H       -3.536168382    18.405651893   -12.594617244
 H       -7.281552687    16.331467486   -12.156323178
 H       -6.111604740    14.377271844   -11.285023437
 H       -5.472731563    19.532018456   -13.179930346
 H       -8.161197658    17.972321041   -12.881774446
 H       -8.882225781    19.725894129   -10.861104931
 H      -10.727195395    20.270379522    -9.367432130
 H      -12.782218133    22.284931306   -12.567833637
 H      -10.971306573    21.755389856   -14.096736544
 H      -12.798265919    21.237008992    -8.898756102
 H      -14.246983727    22.670307070   -11.229176099
 H      -14.263627547    21.627637169    -7.557743428
 H      -16.079554261    22.150532299    -6.033221121
 H      -18.170801210    24.161433176    -9.276901215
 H      -16.321875342    23.629044285   -10.764051757
 H       -0.128836614    15.986278937    -9.167258731
 H       -0.194977481    14.375439135    -8.430486433
 H       -2.796171940    14.657981845    -8.289945651
 H       -2.631775754    16.142791391    -9.218585222
 H       -1.459933734    14.831232074   -11.095620781
 H       -1.657442211    13.341286938   -10.154926600
 H        2.262642912    -1.029395313     0.051131089
 H        2.260261463     0.552407171     0.872047505
 H        2.275941081     0.470117311    -0.910471026
 H      -19.434419241    22.867737473    -4.143894024
 H      -17.655248201    22.898402881    -4.229786170
 H      -18.564213805    21.562909999    -4.988959575
 H      -19.473440964    25.639645659    -5.249211618
 C      -17.318408872    25.906496932    -5.328591923
 C      -18.898521156    26.372796187    -7.210869977
 H      -20.318695681    23.869589879    -8.211312999
 C      -20.388604786    21.751299663    -7.748860070
 C      -21.560792409    23.554112391    -6.460916020
 H       -6.355316804    21.454385780   -14.502326062
 C       -7.887749740    22.990479003   -14.592552605
 C       -6.709284527    22.254841028   -12.511484502
 H       -9.584783493    20.814768603   -15.831943499
 C       -7.967389984    19.522612893   -16.486995842
 C      -10.109962544    18.743952374   -15.445414586
 H       -6.319967436    11.820921834     0.368534996
 C       -6.561501107    13.805401914    -0.477197777
 C       -6.364844991    11.688408340    -1.800520501
 H       -4.045382230    14.302434603     1.298538586
 C       -4.215831304    12.538716203     2.555306218
 C       -2.086158805    13.398862041     1.554785495
 H       -0.139366795    -1.937017591    -1.513876975
 C       -2.147155012    -1.110047975    -1.574262633
 C       -0.187420643    -0.229031667    -2.856007769
 H       -1.774791244    -0.924688405     1.441032280
 C       -0.172438726    -2.373398160     1.633275713
 C       -0.298866246    -0.184819964     2.848741205
 H      -17.096432984    25.365519516    -4.399761264
 H      -17.364228577    26.971657612    -5.059946240
 H      -16.450488670    25.794417851    -5.994359942
 H      -19.866905210    26.186555019    -7.692122252
 H      -18.117020002    26.286570429    -7.978906235
 H      -18.908049031    27.428532876    -6.902556442
 H      -19.551749805    21.452979985    -8.396592060
 H      -21.303687638    21.589930547    -8.336302706
 H      -20.428936650    21.040637412    -6.912785136
 H      -21.609478211    24.606491434    -6.152727768
 H      -21.655390643    22.936357715    -5.558052326
 H      -22.465808539    23.366641041    -7.056971277
 H       -8.192899476    22.772371328   -15.623872098
 H       -7.172859018    23.823853506   -14.654982401
 H       -8.764741835    23.381176276   -14.057289377
 H       -6.191173914    21.466037619   -11.949297100
 H       -7.504008504    22.651501786   -11.863016916
 H       -5.983455636    23.069613659   -12.641910969
 H       -7.230239782    20.323554218   -16.627487732
 H       -8.410907491    19.336196581   -17.475455741
 H       -7.418134403    18.608311940   -16.219431317
 H      -10.955197621    18.944559911   -14.772024633
 H       -9.679710478    17.774511464   -15.158560186
 H      -10.542023894    18.604723869   -16.446580881
 H       -6.354609521    14.356726688     0.448832968
 H       -7.655760340    13.721204745    -0.545200717
 H       -6.250016948    14.437077580    -1.321013796
 H       -5.998292580    10.655149300    -1.873865474
 H       -6.047550835    12.215767818    -2.711954995
 H       -7.461429191    11.630100214    -1.844081946
 H       -5.311738783    12.488982952     2.526590051
 H       -3.957217531    13.070589007     3.482471315
 H       -3.837315945    11.513459503     2.675949551
 H       -1.581703926    13.956215439     0.753621082
 H       -1.581288312    12.426777198     1.651543335
 H       -1.881203100    13.944803674     2.486569316
 H       -2.527914835    -1.684922477    -0.720617511
 H       -2.439667920    -1.669514010    -2.474787939
 H       -2.697582315    -0.159323153    -1.613353736
 H        0.900712885    -0.125708990    -2.955386170
 H       -0.629874593     0.769949342    -2.979527173
 H       -0.519566743    -0.821041899    -3.720892191
 H       -0.449618232    -2.979050138     0.760847624
 H       -0.631522074    -2.862648488     2.504720628
 H        0.913582201    -2.460857989     1.769897173
 H       -0.657850729     0.853984866     2.877557744
 H        0.779725719    -0.167187835     3.054142505
 H       -0.767761563    -0.695490689     3.701881975

