187   

Si        0.000000000     0.000000000     0.000000000
 C        1.865095166     0.000000000     0.000000000
 C       -0.679711946     1.710989226     0.000000000
 C        0.131144121     2.810406503    -0.299065907
 C       -0.395429599     4.101968635    -0.295833544
 C       -1.741960804     4.323174739     0.003686554
 C       -2.554332419     3.220418598     0.299924872
 C       -2.031949311     1.930247203     0.296285364
 C       -2.336326082     5.655009548     0.019244524
 C       -1.673943000     6.793727081    -0.246007257
 C       -2.277693547     8.121348675    -0.227817700
 C       -3.626147558     8.326310968     0.073695267
 C       -4.168227230     9.611113298     0.081256422
 C       -3.379218179    10.716219134    -0.249283116
 C       -2.026731695    10.514137811    -0.558410772
 C       -1.481667892     9.233329846    -0.535692081
Si       -4.057307919    12.425089142    -0.250748042
 C       -3.630133850    13.290400850    -1.804016999
 C       -3.462183834    12.662205921    -2.975131229
 C       -3.120121140    13.335284705    -4.230395767
 C       -2.972993397    12.555916133    -5.388873050
 C       -2.650201161    13.141072998    -6.602358216
 C       -2.486270086    14.533978745    -6.683397670
 C       -2.629466120    15.319314307    -5.535128135
 C       -2.933764767    14.716138802    -4.317786560
 N       -2.152891970    15.052291823    -7.978703746
 C       -3.359565908    15.199749627    -8.824417868
 C       -1.313387133    16.263045762    -7.954587625
 C       -4.292913318    16.357224867    -8.415647467
 C       -5.741303309    16.128526799    -8.889079395
 N       -6.664013468    15.626542265    -7.849749091
 C       -6.397696068    14.310352473    -7.390335492
 C       -6.362329964    13.274782578    -8.345318926
 C       -6.106619813    11.971544891    -7.950791345
 C       -5.916350323    11.649332092    -6.598842660
 C       -5.987743981    12.674841322    -5.652974983
 C       -6.241191566    13.987869769    -6.034062977
 C       -6.936194881    16.628628974    -6.804641178
 C       -5.649100541    10.255564959    -6.238354830
 C       -5.450924417     9.825100630    -4.985284213
Si       -5.116838644     8.085143539    -4.530761184
 C       -5.891370519     6.872256874    -5.674077037
 C       -7.029469378     7.212440392    -6.412885330
 C       -7.614469034     6.289949849    -7.279265325
 C       -7.086436902     5.003128693    -7.414502629
 C       -5.953675735     4.659859795    -6.664436297
 C       -5.364798377     5.580365802    -5.801613085
 C       -7.664399941     4.004901056    -8.308040324
 C       -8.745970369     4.203511290    -9.080434855
 C       -9.323177334     3.204561418    -9.973686591
 C       -8.791979361     1.919543212   -10.111310317
 C       -9.375774749     0.995151676   -10.977334377
 C      -10.502054746     1.339341088   -11.731195550
 C      -11.036311107     2.627963845   -11.595932104
 C      -10.454698687     3.546513053   -10.726505771
Si      -11.284708998     0.131602502   -12.878626231
 C      -10.204932793    -1.367120019   -13.139575288
 C      -12.954086819    -0.438221558   -12.163117518
 C      -11.604435821     1.008931312   -14.537468475
 C       -3.227328102     7.837398645    -4.562502557
 C       -5.730565417     7.790943594    -2.758193023
 C       -5.958647923    12.383253212    -0.131957373
 C       -3.368051218    13.394110668     1.229259080
 C       -0.614296740    -0.918247370    -1.550139407
 C       -0.656482369    -0.906561549     1.539518608
 H        1.192104829     2.699666308    -0.539526331
 H        0.257490361     4.940976568    -0.529662246
 H       -3.606469671     3.370767813     0.535054287
 H       -2.713450513     1.108677272     0.534781515
 H       -3.401133691     5.676248871     0.271390435
 H       -0.610063602     6.775367939    -0.497869789
 H       -4.267752291     7.480067519     0.314378332
 H       -5.224837523     9.707297414     0.346816353
 H       -1.364084565    11.342900879    -0.829187321
 H       -0.427307500     9.095702109    -0.767395880
 H       -3.537864997    14.382690133    -1.717881821
 H       -3.552126526    11.570125539    -3.081397339
 H       -3.121466357    11.473836367    -5.341755415
 H       -2.525965725    12.534188791    -7.498499321
 H       -2.500073643    16.395809916    -5.583719219
 H       -3.034935152    15.338891695    -3.429525818
 H       -0.961250534    16.461543649    -8.981735449
 H       -0.422215339    16.069048079    -7.332144518
 H       -1.812164235    17.167516622    -7.577520663
 H       -7.250195239    17.572086019    -7.282644456
 H       -6.080461721    16.842053992    -6.144749926
 H       -7.783614397    16.281578032    -6.186131310
 H       -6.539780837    13.501206923    -9.393409106
 H       -6.063990498    11.184946203    -8.704633203
 H       -5.840893247    12.453992877    -4.593222263
 H       -6.276367138    14.758346896    -5.269958819
 H       -5.626228040     9.583540758    -7.107593290
 H       -5.469666224    10.522529446    -4.132021638
 H       -7.494863381     8.201233775    -6.339563696
 H       -8.494886802     6.581640372    -7.848921296
 H       -5.528144528     3.662202426    -6.753376022
 H       -4.484587617     5.254118614    -5.239405233
 H       -7.145319154     3.041915469    -8.314457649
 H       -9.265582415     5.166131377    -9.073494826
 H       -7.913423713     1.627675248    -9.538787800
 H       -8.915987746     0.005089493   -11.041041988
 H      -11.914661165     2.953509054   -12.160399602
 H      -10.885102957     4.541857398   -10.633724373
 H       -3.016594027    15.330628111    -9.873527707
 H       -3.914007144    14.231449766    -8.789787407
 H       -4.273963826    16.474997911    -7.314056374
 H       -3.910146024    17.309265750    -8.822434378
 H       -6.168914093    17.082491339    -9.274691377
 H       -5.765952050    15.423110073    -9.749316164
 H        2.262978108    -1.029773126     0.042974682
 H        2.261316630     0.545245486     0.875971012
 H        2.275023428     0.476724595    -0.907572955
 H      -10.662322629    -2.066105402   -13.862318852
 H      -10.040639053    -1.921767579   -12.199172065
 H       -9.215670991    -1.078132083   -13.538609460
 H      -13.340650708    -1.219472592   -12.879735368
 C      -12.808949467    -1.092327008   -10.776772887
 C      -14.003970095     0.683488872   -12.071085256
 H      -12.293014518     1.872219302   -14.302680255
 C      -10.318547316     1.587390621   -15.155329190
 C      -12.304408751     0.117648527   -15.578688416
 H       -3.041843272     6.824172971    -4.102327562
 C       -2.659905510     7.828510090    -5.993438102
 C       -2.464079578     8.883624083    -3.736411854
 H       -5.168564192     8.527390958    -2.109295402
 C       -7.236388384     8.067675022    -2.604352303
 C       -5.424016428     6.374738387    -2.240518987
 H       -6.200420429    11.780574853     0.790077637
 C       -6.584632093    13.779287678     0.037589903
 C       -6.611041349    11.696311665    -1.345631791
 H       -3.844344126    14.416133244     1.179484094
 C       -3.736252246    12.761543851     2.582872360
 C       -1.841598527    13.579751875     1.163617136
 H       -0.118792996    -1.931594730    -1.520970413
 C       -2.138049134    -1.133665464    -1.575437912
 C       -0.193795328    -0.218556879    -2.855695801
 H       -1.781074472    -0.910112399     1.440430393
 C       -0.188038072    -2.369350305     1.636625391
 C       -0.301650252    -0.177898592     2.848354959
 H      -12.137972078    -1.960886396   -10.771848191
 H      -13.785781101    -1.457083076   -10.428188969
 H      -12.450830122    -0.390988266   -10.009235792
 H      -14.228684224     1.150681457   -13.038196764
 H      -13.717389930     1.479327949   -11.369188154
 H      -14.955740828     0.276814963   -11.699122960
 H       -9.790492161     2.282134930   -14.486361035
 H      -10.560140658     2.159170628   -16.062622685
 H       -9.602376187     0.812772348   -15.459755344
 H      -13.270889734    -0.274062114   -15.236137945
 H      -11.690243836    -0.736169643   -15.894071245
 H      -12.513598003     0.697859100   -16.489238776
 H       -3.102873899     7.054403357    -6.634362496
 H       -1.580188151     7.624838567    -5.967566979
 H       -2.780848963     8.792439225    -6.508208507
 H       -2.831586074     8.982532191    -2.704379494
 H       -2.477934067     9.882753203    -4.193172207
 H       -1.405719900     8.598783909    -3.652688681
 H       -7.529079083     9.080865433    -2.912322242
 H       -7.534678463     7.964075398    -1.551858850
 H       -7.859108941     7.359544863    -3.169172921
 H       -4.347604430     6.158234098    -2.187109817
 H       -5.894689101     5.583827632    -2.841043140
 H       -5.813367590     6.253274208    -1.219931068
 H       -6.237665883    14.308471239     0.933886546
 H       -7.675949962    13.691251486     0.141139921
 H       -6.411158565    14.434161790    -0.827810666
 H       -6.251771244    10.671766686    -1.518874575
 H       -6.468431991    12.259500787    -2.279825249
 H       -7.697222777    11.619016778    -1.196335254
 H       -4.818508997    12.677605748     2.745641245
 H       -3.349499004    13.380647516     3.405512002
 H       -3.299962778    11.761939427     2.721914006
 H       -1.497548822    14.053475433     0.234188809
 H       -1.292056522    12.634954029     1.281440039
 H       -1.506539113    14.231579567     1.983350964
 H       -2.511642355    -1.707101945    -0.717641550
 H       -2.421284884    -1.704808371    -2.471719799
 H       -2.702002698    -0.191485547    -1.623710619
 H        0.892396122    -0.096529321    -2.955771239
 H       -0.652601783     0.773440847    -2.975358582
 H       -0.516763267    -0.812907337    -3.722485891
 H       -0.465659579    -2.974034095     0.763625459
 H       -0.653293273    -2.855114827     2.506775257
 H        0.896953637    -2.463182405     1.777235723
 H       -0.657219563     0.862062176     2.876173876
 H        0.777005661    -0.164050011     3.053530992
 H       -0.772302360    -0.685955484     3.702167903

