187   

Si        0.000000000     0.000000000     0.000000000
 C        1.865570718     0.000000000     0.000000000
 C       -0.669650714     1.715130101     0.000000000
 C        0.163618251     2.813393227    -0.234828066
 C       -0.352753028     4.108893213    -0.232863251
 C       -1.711772804     4.335710662    -0.001081087
 C       -2.546329477     3.234368086     0.231470051
 C       -2.033413648     1.940143141     0.231880859
 C       -2.293524426     5.673599699     0.009793250
 C       -1.602328969     6.807392795    -0.197029747
 C       -2.181181711     8.146166761    -0.186747271
 C       -3.540168493     8.375134501     0.044875775
 C       -4.052793928     9.671634705     0.046086005
 C       -3.218906316    10.765486510    -0.207810836
 C       -1.856736580    10.539315342    -0.444423998
 C       -1.344704820     9.244922748    -0.426346869
Si       -3.878432451    12.479959153    -0.209906657
 C       -3.052227576    13.538836426    -1.446349253
 C       -2.531177976    13.114961367    -2.606007284
 C       -1.876685836    14.003190490    -3.568277781
 C       -1.360075065    13.467871030    -4.758095150
 C       -0.733790750    14.274261913    -5.694050351
 C       -0.691200058    15.675408794    -5.516428242
 C       -1.222255034    16.214058770    -4.328852234
 C       -1.771596793    15.380372471    -3.363148094
 N       -0.053709015    16.484914509    -6.471159132
 C       -0.158360112    16.096205056    -7.891770869
 C       -0.117821072    17.940907846    -6.263054193
 C       -1.532566741    15.619131833    -8.393187333
 C       -2.643490155    16.687873544    -8.433390009
 N       -3.815024073    16.467895759    -7.543665771
 C       -4.070884056    15.106439047    -7.228724001
 C       -4.304948608    14.220216478    -8.299457307
 C       -4.559807062    12.881275335    -8.050753313
 C       -4.602367693    12.384989479    -6.739024844
 C       -4.398185851    13.273935200    -5.681821217
 C       -4.157368153    14.623032590    -5.916085281
 C       -3.857318512    17.400077311    -6.404303568
 C       -4.875580130    10.961882304    -6.529516574
 C       -4.939668961    10.379940283    -5.324624512
Si       -5.280484445     8.603118785    -5.055897594
 C       -4.667768790     7.584418814    -6.460298824
 C       -3.490013615     7.959632066    -7.118554038
 C       -3.003691547     7.206175175    -8.185045428
 C       -3.672752388     6.054288061    -8.609294220
 C       -4.845929305     5.676102175    -7.944135356
 C       -5.337992173     6.430580849    -6.881396150
 C       -3.200696183     5.234939849    -9.720553421
 C       -2.093772921     5.485920621   -10.440060646
 C       -1.621579979     4.666723798   -11.551304191
 C       -2.292502503     3.518562109   -11.980106801
 C       -1.805513661     2.764316280   -13.047480922
 C       -0.637548572     3.146927083   -13.714562701
 C        0.037384678     4.298273650   -13.286634706
 C       -0.447938038     5.045486776   -12.217055797
Si        0.016192880     2.160793600   -15.124639775
 C       -1.266718914     0.980245702   -15.788085920
 C        0.573464108     3.361016984   -16.493211103
 C        1.529876331     1.162538083   -14.545371654
 C       -4.300624508     8.100076140    -3.502118062
 C       -7.132932696     8.312270409    -4.763347580
 C       -5.747642460    12.493281784    -0.563212998
 C       -3.584840255    13.234767767     1.511670040
 C       -0.609179181    -0.918647658    -1.551752381
 C       -0.663540191    -0.899258601     1.540182429
 H        1.234726762     2.698969425    -0.423222478
 H        0.317926265     4.946445040    -0.416572580
 H       -3.608064093     3.388959014     0.413695625
 H       -2.731800793     1.120044304     0.420661966
 H       -3.368934976     5.703670457     0.207765883
 H       -0.526196858     6.775245487    -0.391925900
 H       -4.211533158     7.539133152     0.231672212
 H       -5.122082607     9.788307741     0.242680534
 H       -1.160327369    11.359198634    -0.650553765
 H       -0.282774852     9.086916864    -0.605413452
 H       -3.023550655    14.603947258    -1.167130190
 H       -2.545291090    12.061755608    -2.919569272
 H       -1.431531363    12.393723849    -4.943499862
 H       -0.280019783    13.822432827    -6.571647327
 H       -1.190319208    17.281076598    -4.136946244
 H       -2.145277288    15.824053974    -2.438753789
 H        0.481872684    18.455268055    -7.033035838
 H        0.344452240    18.189702985    -5.289644788
 H       -1.141070129    18.348192243    -6.287751690
 H       -3.804983665    18.433843787    -6.784043186
 H       -3.053858683    17.248707347    -5.665358672
 H       -4.830859369    17.296160495    -5.891033076
 H       -4.285190396    14.596876679    -9.318811625
 H       -4.733483222    12.206713456    -8.889077674
 H       -4.424588321    12.918141628    -4.649157385
 H       -3.988514256    15.281303128    -5.066705783
 H       -5.021581859    10.407110277    -7.466429220
 H       -4.794992240    10.961477642    -4.399705478
 H       -2.921006404     8.849536848    -6.826602153
 H       -2.090487224     7.522190136    -8.685526692
 H       -5.381480715     4.782440642    -8.258044611
 H       -6.257751623     6.086020267    -6.401501271
 H       -3.825546600     4.365724618    -9.945738658
 H       -1.468485597     6.354573578   -10.214060923
 H       -3.206249363     3.201548702   -11.480702279
 H       -2.373731154     1.875951533   -13.336553259
 H        0.954853172     4.645550052   -13.769901469
 H        0.091350669     5.935209694   -11.897647985
 H        0.197950954    16.939708898    -8.523519275
 H        0.581729827    15.270377436    -8.044590742
 H       -1.400669082    15.202958689    -9.412303538
 H       -1.854495756    14.745194653    -7.787892183
 H       -2.212817232    17.691381052    -8.237497081
 H       -3.067178198    16.732226807    -9.466286908
 H        2.263753548    -1.029561835     0.042792726
 H        2.262369576     0.545180018     0.875549083
 H        2.274061653     0.476453344    -0.908518938
 H       -0.883761623     0.428046263   -16.664796069
 H       -2.174989482     1.522500712   -16.108332330
 H       -1.568440605     0.234828654   -15.031713640
 H        1.382791147     4.000079927   -16.033875513
 C        1.172550677     2.654853360   -17.722525090
 C       -0.559434879     4.295682639   -16.954453602
 H        1.850922705     0.549479525   -15.436493081
 C        2.719133495     2.041338247   -14.118062237
 C        1.193849557     0.194397117   -13.396233049
 H       -4.665920241     8.762999589    -2.663763513
 C       -4.520985858     6.637450485    -3.083441294
 C       -2.791747653     8.348495217    -3.679219475
 H       -7.248024918     7.201923545    -4.595786852
 C       -7.684120620     9.034253614    -3.520931597
 C       -7.984758163     8.703499914    -5.984572397
 H       -6.225188165    11.882461856     0.255963770
 C       -6.358066063    13.905907293    -0.518955105
 C       -6.098687388    11.846279029    -1.913621789
 H       -4.007422806    14.279732533     1.471957535
 C       -4.305033098    12.470324713     2.635799437
 C       -2.088191521    13.337808157     1.855533246
 H       -0.103146713    -1.926889999    -1.526264158
 C       -2.130552330    -1.150682569    -1.577140914
 C       -0.197514909    -0.210041760    -2.855253068
 H       -1.788406834    -0.885742920     1.445067178
 C       -0.216203506    -2.368850372     1.633907486
 C       -0.293942970    -0.177668657     2.848964193
 H        2.033992070     2.018604691   -17.481817386
 H        1.534406408     3.401263105   -18.444622228
 H        0.440935695     2.037751959   -18.260650393
 H       -1.002704400     4.877943953   -16.133813789
 H       -1.375964993     3.763463499   -17.460151168
 H       -0.173434255     5.028399686   -17.677322370
 H        3.084003885     2.699039040   -14.917056198
 H        3.570454962     1.406972208   -13.830977543
 H        2.495088240     2.666238832   -13.241869684
 H        0.407009886    -0.527491078   -13.649802574
 H        0.885883397     0.713526578   -12.477045422
 H        2.080822743    -0.398900014   -13.131577997
 H       -5.565187291     6.403428601    -2.845153986
 H       -3.936612900     6.418517949    -2.175395174
 H       -4.178653060     5.917622448    -3.840240961
 H       -2.545088155     9.391930401    -3.916965744
 H       -2.337936896     7.707986109    -4.447486703
 H       -2.264262053     8.117251168    -2.739973041
 H       -7.166820484     8.759449565    -2.592436703
 H       -8.741033717     8.771563006    -3.371999596
 H       -7.651093572    10.128678274    -3.617566840
 H       -7.694204524     8.181425010    -6.906597264
 H       -7.957420337     9.782646345    -6.195311501
 H       -9.039305926     8.450553025    -5.807793368
 H       -6.220567757    14.412544177     0.444212376
 H       -7.444359636    13.850757248    -0.680819802
 H       -5.964692058    14.566149469    -1.305258053
 H       -5.737597452    10.812461883    -2.006273641
 H       -5.712663978    12.415224743    -2.772514598
 H       -7.190083973    11.805936812    -2.040312980
 H       -5.395041693    12.438614625     2.512471297
 H       -4.120281058    12.960969623     3.602650920
 H       -3.950289942    11.435513749     2.746275343
 H       -1.510417372    13.917144794     1.122395456
 H       -1.605260157    12.355212859     1.957755041
 H       -1.957167657    13.845412947     2.821829666
 H       -2.499704757    -1.721510247    -0.715939689
 H       -2.406105478    -1.731088610    -2.469892284
 H       -2.703701263    -0.214558084    -1.633837631
 H        0.887248580    -0.077340941    -2.957002925
 H       -0.665464905     0.778548339    -2.970419064
 H       -0.516702446    -0.803593397    -3.723998430
 H       -0.508020662    -2.968650799     0.762128972
 H       -0.683091859    -2.848358808     2.506560239
 H        0.868149879    -2.478751684     1.767610732
 H       -0.634590191     0.867199302     2.879270509
 H        0.785428366    -0.179712151     3.050561493
 H       -0.769192097    -0.680074454     3.703506318

