187   

Si        0.000000000     0.000000000     0.000000000
 C        1.865134765     0.000000000     0.000000000
 C       -0.677607461     1.711665976     0.000000000
 C        0.105912657     2.794861276    -0.410970862
 C       -0.414769181     4.088768509    -0.408104671
 C       -1.729594142     4.328958707    -0.000571108
 C       -2.515105642     3.241883504     0.405575765
 C       -1.998298266     1.949245760     0.403789775
 C       -2.317032011     5.664464105     0.019098188
 C       -1.676169092     6.788579266    -0.343665905
 C       -2.265142780     8.123546017    -0.323412250
 C       -3.581229739     8.359620023     0.085087257
 C       -4.104681127     9.651513876     0.089145016
 C       -3.318826142    10.737617476    -0.312142095
 C       -2.000865592    10.504931562    -0.723154694
 C       -1.483207413     9.211864636    -0.731329986
Si       -4.009683276    12.442756686    -0.306797449
 C       -2.653736032    13.664052472    -0.403881577
 C       -2.583139980    14.691527341    -1.260174050
 C       -1.475985471    15.648582508    -1.303983722
 C       -1.513872659    16.685890228    -2.247483398
 C       -0.491743389    17.616849419    -2.329790884
 C        0.640793511    17.509588725    -1.494194696
 C        0.681344174    16.468516906    -0.549678995
 C       -0.374226273    15.570540228    -0.448530343
 N        1.666376049    18.472571786    -1.600283086
 C        2.025040779    18.883629902    -2.972884168
 C        2.847649326    18.274973749    -0.741962454
 C        2.435513970    17.701797915    -3.870193566
 C        3.307150057    18.122841467    -5.064564953
 N        4.593588884    18.775755291    -4.728815327
 C        5.238424972    18.294972097    -3.567881592
 C        5.451657505    16.904306513    -3.454727687
 C        6.079380032    16.384215812    -2.336049512
 C        6.545991426    17.223453153    -1.312147441
 C        6.357576958    18.600852034    -1.441359932
 C        5.723000194    19.138905551    -2.555711208
 C        4.573062847    20.235148466    -4.917872081
 C        7.203062490    16.620871988    -0.150294542
 C        7.685730818    17.322981769     0.882794076
Si        8.513871194    16.630175102     2.357595920
 C       10.096309035    17.518277209     2.653531481
 C       10.729587951    18.195057139     1.605757580
 C       11.929811361    18.870410808     1.823829372
 C       12.528077486    18.874659316     3.086968484
 C       11.894542814    18.189962106     4.132678246
 C       10.693438616    17.518315208     3.920210969
 C       13.782932008    19.567777069     3.360034922
 C       14.488024560    20.258565079     2.448104163
 C       15.742874292    20.952547145     2.718104393
 C       16.342568357    20.963788033     3.979971360
 C       17.543457624    21.640775498     4.192937739
 C       18.174935197    22.316211857     3.143962597
 C       17.576007830    22.305355693     1.876848124
 C       16.374621908    21.633864501     1.668827708
Si       19.760067165    23.214641190     3.407519150
 C       20.526227164    22.787316339     5.053725988
 C       20.945279923    22.755854879     1.990373019
 C       19.444175955    25.090913238     3.350381631
 C        7.356520780    16.860559400     3.850470532
 C        8.871667871    14.775219809     2.143750494
 C       -5.211765446    12.637312293    -1.767618866
 C       -4.965618029    12.723320278     1.314601667
 C       -0.623227625    -0.914459411    -1.548517918
 C       -0.650985064    -0.913592334     1.538436863
 H        1.141348801     2.669638538    -0.739502206
 H        0.216867023     4.914981823    -0.729318979
 H       -3.542145371     3.406716488     0.725855525
 H       -2.659145245     1.141232060     0.729825070
 H       -3.355565903     5.701863746     0.360925878
 H       -0.637827657     6.751711232    -0.685924172
 H       -4.210373292     7.531158328     0.404783762
 H       -5.140139362     9.774351784     0.418636944
 H       -1.343772029    11.317094406    -1.050920582
 H       -0.457689941     9.048836973    -1.057130373
 H       -1.860488885    13.492967059     0.343191506
 H       -3.359449686    14.895566234    -2.009153396
 H       -2.367697740    16.772195626    -2.919751827
 H       -0.566160189    18.432867353    -3.042862861
 H        1.533854338    16.351352169     0.112659120
 H       -0.325001563    14.781440858     0.303574111
 H        3.548260428    19.118850867    -0.872311434
 H        3.404380208    17.346762254    -0.954372964
 H        2.534231567    18.277541405     0.316881007
 H        4.240955321    20.456779313    -5.947809095
 H        5.600720932    20.631478581    -4.827267195
 H        3.919788465    20.777588368    -4.216707857
 H        5.125373764    16.243971039    -4.254868037
 H        6.224499958    15.306032933    -2.258332132
 H        6.716435108    19.275554040    -0.662044402
 H        5.594454463    20.214722735    -2.619634750
 H        7.267133566    15.526599100    -0.208559383
 H        7.599490387    18.422460290     0.912639409
 H       10.311060130    18.221325789     0.594220245
 H       12.401088576    19.394734923     0.994400314
 H       12.344367193    18.180990350     5.123624992
 H       10.244269647    17.002467572     4.773174332
 H       14.133414207    19.490466978     4.393301092
 H       14.136977575    20.334848744     1.414645830
 H       15.873701167    20.441824798     4.812066508
 H       17.963593240    21.615149017     5.202192602
 H       18.024532473    22.814903347     1.019246848
 H       15.924094137    21.637888522     0.678077695
 H        1.161048143    19.428412573    -3.413560363
 H        2.848881855    19.628530024    -2.900536605
 H        2.968117320    16.942384091    -3.261555845
 H        1.530989065    17.180516225    -4.240546367
 H        3.562283542    17.216224868    -5.666109289
 H        2.725132623    18.785956269    -5.740668166
 H        2.263023976    -1.028891811     0.058061367
 H        2.259901524     0.558376715     0.868429367
 H        2.276063390     0.464151742    -0.913486559
 H       21.497339421    23.297311662     5.185130054
 H       20.708956854    21.700421461     5.135619260
 H       19.877788387    23.084984965     5.896313532
 H       20.433095377    23.086296659     1.040152527
 C       22.303499401    23.475443694     2.068159862
 C       21.186078445    21.238602384     1.891820084
 H       20.436544201    25.573659014     3.586003889
 C       18.982868643    25.599183789     1.972806361
 C       18.426282093    25.549592696     4.410770921
 H        7.884124307    16.389352276     4.729507216
 C        7.110533988    18.343050204     4.182666692
 C        6.000799836    16.154347616     3.673381672
 H        7.886425015    14.298507523     1.868921181
 C        9.873682853    14.497884992     1.008217137
 C        9.383301538    14.101417238     3.429501577
 H       -5.514791032    13.724530486    -1.775249374
 C       -4.548472192    12.313659586    -3.119041628
 C       -6.489493973    11.790339923    -1.630377183
 H       -5.801747766    11.965688022     1.316980380
 C       -4.097130607    12.475330752     2.560842051
 C       -5.592063235    14.125437288     1.409188151
 H       -0.143441106    -1.935041357    -1.516324779
 C       -2.150437678    -1.105138337    -1.572066953
 C       -0.191615087    -0.225195753    -2.855919230
 H       -1.775590392    -0.922584506     1.441135988
 C       -0.176287993    -2.374811918     1.630837051
 C       -0.297084189    -0.187739630     2.849059737
 H       22.216541481    24.569628503     2.074603459
 H       22.913360655    23.221143901     1.188976488
 H       22.894046092    23.181586594     2.946046447
 H       20.258949004    20.658731416     1.777654001
 H       21.725692126    20.832130285     2.757446658
 H       21.800715898    21.010868095     1.009243603
 H       19.694480440    25.381339839     1.166440981
 H       18.871128325    26.693137851     1.994983260
 H       18.003162119    25.198638137     1.676689503
 H       18.720400980    25.295680516     5.437286562
 H       17.420091514    25.139513178     4.242142806
 H       18.320883707    26.643650733     4.383447704
 H        8.035763039    18.908732897     4.362478626
 H        6.515596956    18.429063098     5.103170596
 H        6.545932241    18.869182550     3.400817610
 H        6.091261428    15.071283613     3.519622910
 H        5.411343273    16.561457153     2.839260746
 H        5.387685500    16.285400006     4.576585228
 H        9.565719881    14.910826006     0.037989461
 H        9.987121226    13.414601600     0.860973515
 H       10.879847381    14.885761949     1.224637712
 H        8.674552735    14.162077419     4.265132605
 H       10.345171246    14.507913115     3.772909531
 H        9.552600634    13.029598855     3.249727943
 H       -3.647265920    12.908725479    -3.320614522
 H       -5.246621282    12.521135964    -3.941938173
 H       -4.268569897    11.254311902    -3.212539173
 H       -7.075631009    12.027442520    -0.733469743
 H       -6.288582324    10.709841168    -1.626678030
 H       -7.154382604    11.973082997    -2.487145638
 H       -3.647022208    11.472855622     2.585465692
 H       -4.710293425    12.557992917     3.469495516
 H       -3.285135487    13.207406282     2.669537190
 H       -6.293400982    14.345209941     0.594070656
 H       -4.841515735    14.928915884     1.427670789
 H       -6.165819402    14.219485791     2.342198382
 H       -2.531163661    -1.678508448    -0.717416593
 H       -2.445145953    -1.664874790    -2.471692743
 H       -2.699203058    -0.153397936    -1.611097827
 H        0.896370200    -0.121371935    -2.956168685
 H       -0.634620862     0.773745138    -2.978111246
 H       -0.524314804    -0.816567608    -3.721029147
 H       -0.452279055    -2.978060187     0.756363364
 H       -0.638627228    -2.865032702     2.499983953
 H        0.909206752    -2.464510817     1.770088589
 H       -0.654487610     0.851540386     2.879918446
 H        0.781781167    -0.171975730     3.053177784
 H       -0.765652629    -0.699174962     3.701902602

