187   

Si        0.000000000     0.000000000     0.000000000
 C        1.864550060     0.000000000     0.000000000
 C       -0.681493340     1.709685017     0.000000000
 C        0.118748076     2.795764064     0.367550949
 C       -0.399764883     4.090170374     0.366790059
 C       -1.728589677     4.328313529     0.005454204
 C       -2.530141977     3.238122021    -0.358287883
 C       -2.015396093     1.944351246    -0.360281764
 C       -2.307179340     5.668337243    -0.007575123
 C       -1.637214260     6.786640833     0.319142081
 C       -2.199285582     8.132778802     0.311663603
 C       -1.373734870     9.204529395     0.678508754
 C       -1.861210485    10.508287423     0.687928307
 C       -3.192247770    10.769724506     0.338550044
 C       -4.018541588     9.702375275    -0.027452842
 C       -3.524173481     8.398193083    -0.044064363
Si       -3.834991110    12.493150493     0.351470564
 C       -5.660919801    12.477838030     0.416341810
 C       -6.480994952    13.163908313    -0.390221884
 C       -7.941576520    13.121579190    -0.302053339
 C       -8.699037469    13.883671162    -1.201890959
 C      -10.084259032    13.877962218    -1.159801791
 C      -10.769038904    13.054092221    -0.241025466
 C      -10.007732466    12.284416033     0.660198859
 C       -8.620688024    12.341108938     0.637989076
 N      -12.175157227    13.048264373    -0.198265508
 C      -12.891630418    13.386687495    -1.440378223
 C      -12.812127736    11.943581122     0.540035595
 C      -12.637676623    12.384422517    -2.577552613
 C      -13.387160762    12.812962328    -3.849106400
 N      -13.201231496    11.879891575    -4.974091776
 C      -13.683974346    10.568449213    -4.811436285
 C      -14.775662465    10.309497291    -3.955319793
 C      -15.251765900     9.017887142    -3.794577535
 C      -14.703991137     7.946809307    -4.513523705
 C      -13.644204671     8.209699709    -5.386289896
 C      -13.141193705     9.494128899    -5.543195321
 C      -11.885332292    12.026571359    -5.620693423
 C      -15.244212575     6.602237142    -4.305869076
 C      -14.797890865     5.508920124    -4.937730406
Si      -15.433647988     3.810215204    -4.717650752
 C      -14.037931850     2.650954379    -4.415124111
 C      -12.800233758     3.125945397    -3.969145002
 C      -11.744404159     2.243581137    -3.740929436
 C      -11.905458510     0.870443038    -3.943155498
 C      -13.148753143     0.396953621    -4.384113190
 C      -14.203731142     1.274781680    -4.616737883
 C      -10.833127410    -0.092872274    -3.718830496
 C       -9.594380097     0.214919566    -3.298132744
 C       -8.532510262    -0.762269683    -3.078642766
 C       -8.718361158    -2.130763447    -3.292142034
 C       -7.680105462    -3.035172843    -3.071727557
 C       -6.432395678    -2.589304052    -2.625157415
 C       -6.242410084    -1.217498110    -2.409543721
 C       -7.279557630    -0.316750223    -2.636819645
Si       -5.060031837    -3.780497234    -2.333309953
 C       -5.687160042    -5.528766813    -2.169635194
 C       -3.833975423    -3.679651159    -3.786039207
 C       -4.142369554    -3.264849219    -0.746899004
 C      -16.649075748     3.713941126    -3.258058291
 C      -16.346585841     3.297183157    -6.306767542
 C       -3.183612711    13.398036754     1.893852170
 C       -3.209653726    13.400337643    -1.198752074
 C       -0.651765521    -0.902808650    -1.544267892
 C       -0.635017496    -0.923351238     1.538543517
 H        1.165428378     2.673566978     0.660005177
 H        0.245707640     4.918629566     0.653669862
 H       -3.568027299     3.401747510    -0.642680894
 H       -2.688272778     1.132804711    -0.652964046
 H       -3.356925972     5.713714417    -0.309863485
 H       -0.586402844     6.734801442     0.621140693
 H       -0.338735980     9.018395467     0.958583317
 H       -1.170576502    11.304149808     0.980178271
 H       -5.065469805     9.850568392    -0.311946941
 H       -4.184497306     7.583733069    -0.335780555
 H       -6.061054670    11.836420918     1.219619427
 H       -6.115982894    13.816892505    -1.193663846
 H       -8.193146674    14.505100860    -1.941586346
 H      -10.635734246    14.511048685    -1.848222032
 H      -10.492699188    11.644564539     1.390628280
 H       -8.056866926    11.747619494     1.360187141
 H      -13.909727825    12.021070527     0.466994103
 H      -12.557555440    12.030379509     1.612023713
 H      -12.511270083    10.945701364     0.179969803
 H      -11.591641099    13.089118301    -5.648272878
 H      -11.958601274    11.689218197    -6.670586193
 H      -11.084724980    11.459523655    -5.117225443
 H      -15.248860443    11.118560261    -3.407188264
 H      -16.079115976     8.838998089    -3.107030108
 H      -13.198419537     7.394942456    -5.959977165
 H      -12.318343413     9.652472569    -6.233145313
 H      -16.059152308     6.573361630    -3.570898112
 H      -13.983072341     5.574536351    -5.678394365
 H      -12.618257387     4.190579766    -3.789173573
 H      -10.788641261     2.636429567    -3.399093413
 H      -13.294155400    -0.669111817    -4.547510458
 H      -15.149742344     0.848292765    -4.961348876
 H      -11.106776154    -1.132909519    -3.922405691
 H       -9.315286516     1.251976350    -3.092848331
 H       -9.681471100    -2.504618950    -3.635343726
 H       -7.886731251    -4.092852376    -3.257573963
 H       -5.287568881    -0.812094036    -2.061539171
 H       -7.113212140     0.745376878    -2.466190427
 H      -13.979767292    13.446206725    -1.209884264
 H      -12.596359732    14.415961222    -1.748078326
 H      -11.552076414    12.302091269    -2.780670506
 H      -12.952290257    11.367669915    -2.271462674
 H      -14.478870680    12.910987832    -3.649539204
 H      -13.052905893    13.823963428    -4.175959498
 H        2.263607032    -1.029614190    -0.029500376
 H        2.275200697     0.489336043     0.900440693
 H        2.259649739     0.534629302    -0.882977283
 H       -4.860624409    -6.232026680    -1.963644414
 H       -6.192480556    -5.871120329    -3.089536455
 H       -6.410076113    -5.613173649    -1.337890375
 H       -2.964047910    -4.339382464    -3.502545406
 C       -4.428117907    -4.214169456    -5.101854025
 C       -3.298599613    -2.258185836    -4.031834008
 H       -3.679627771    -2.259248651    -0.972197803
 C       -5.092300014    -3.093276752     0.452068838
 C       -3.009683140    -4.228920031    -0.352520028
 H      -17.424556843     4.511585797    -3.447769817
 C      -17.375369801     2.360929806    -3.154408692
 C      -15.970332958     4.014157893    -1.908896626
 H      -16.747104327     2.260047089    -6.114279014
 C      -17.537258486     4.213436986    -6.638851114
 C      -15.411453492     3.225724174    -7.527050544
 H       -2.059845473    13.413874853     1.794015220
 C       -3.674070503    14.853312119     1.989140297
 C       -3.533823277    12.662746013     3.199751330
 H       -3.711257280    14.411193234    -1.189551250
 C       -1.687118046    13.625779772    -1.203953295
 C       -3.605884900    12.678474529    -2.499803595
 H       -1.770898792    -0.975390325    -1.408390893
 C       -0.380040559    -0.118869029    -2.840838879
 C       -0.101192200    -2.331221638    -1.699953300
 H       -0.280104459    -1.988354375     1.427394418
 C       -0.054441929    -0.362135929     2.849376304
 C       -2.169663818    -0.938048360     1.649290018
 H       -4.752615024    -5.260711451    -5.040623145
 H       -3.672864943    -4.173869129    -5.900073719
 H       -5.281961616    -3.620319278    -5.458107326
 H       -2.786851250    -1.827155156    -3.160313465
 H       -4.084536767    -1.554260565    -4.341601658
 H       -2.561300511    -2.270107243    -4.847490988
 H       -5.894603047    -2.363814255     0.270215126
 H       -4.536533130    -2.728775525     1.328293295
 H       -5.568416956    -4.033201052     0.761083034
 H       -2.260674535    -4.368254470    -1.142852508
 H       -3.375434826    -5.222083884    -0.060931064
 H       -2.466853180    -3.833322259     0.519557573
 H      -17.970114411     2.116362099    -4.043613106
 H      -18.080158005     2.376956799    -2.310292891
 H      -16.692009156     1.521312468    -2.964241328
 H      -15.456496907     4.984711620    -1.880861442
 H      -15.236336969     3.246926827    -1.622427556
 H      -16.720154147     4.037592615    -1.105865521
 H      -18.295457273     4.247162870    -5.846005661
 H      -18.051279677     3.851126791    -7.540546537
 H      -17.233914816     5.248419817    -6.853204078
 H      -14.555337221     2.552034981    -7.380764729
 H      -15.015448433     4.207388728    -7.821335322
 H      -15.958830774     2.840502604    -8.399043514
 H       -3.386289967    15.467338420     1.126119892
 H       -3.237649353    15.340792377     2.872639407
 H       -4.765032250    14.930512813     2.103078527
 H       -3.177623608    11.623140813     3.223427040
 H       -4.612620891    12.649137642     3.407384877
 H       -3.061901837    13.167816232     4.054587685
 H       -1.332243904    14.224741017    -0.355653239
 H       -1.392074635    14.174393141    -2.110335581
 H       -1.115375112    12.687129552    -1.217042224
 H       -4.687213821    12.512207331    -2.599055817
 H       -3.113245946    11.701535954    -2.611026821
 H       -3.303509138    13.276284924    -3.370923994
 H       -0.809894649     0.893117962    -2.834682231
 H       -0.827275611    -0.638865186    -3.700458820
 H        0.689779580    -0.018969540    -3.066941948
 H       -0.296573754    -2.971432840    -0.829947912
 H        0.978871333    -2.354248610    -1.895134833
 H       -0.579264148    -2.825615073    -2.559352532
 H        1.041654149    -0.395810505     2.891123199
 H       -0.411923216    -0.955041306     3.703667413
 H       -0.364123843     0.674440191     3.044898056
 H       -2.666451880    -1.390621720     0.780124937
 H       -2.596132141     0.064975255     1.794852834
 H       -2.477637093    -1.530269935     2.523041065

