187   

Si        0.000000000     0.000000000     0.000000000
 C        1.865100431     0.000000000     0.000000000
 C       -0.653609179     1.721734122     0.000000000
 C       -0.105245597     2.668262173     0.874551905
 C       -0.583187688     3.977189798     0.892816315
 C       -1.618951335     4.371817964     0.040392500
 C       -2.168036138     3.423824226    -0.830604015
 C       -1.693320238     2.114302039    -0.848685043
 C       -2.149348489     5.731025726     0.026552846
 C       -1.710116813     6.728126818     0.813383960
 C       -2.236269288     8.088565595     0.804078039
 C       -1.685334676     9.033421021     1.679301324
 C       -2.156518241    10.344745157     1.704943925
 C       -3.190383057    10.741555073     0.851061511
 C       -3.743287328     9.798025335    -0.024876452
 C       -3.272295406     8.487102252    -0.045881336
Si       -3.856480653    12.458199556     0.836994022
 C       -4.298383815    12.931611425    -0.873905832
 C       -3.659076652    12.441580326    -1.944465523
 C       -3.973387139    12.787546438    -3.329586928
 C       -3.216354920    12.193811321    -4.352227832
 C       -3.465731925    12.480956137    -5.681415442
 C       -4.545611539    13.320942297    -6.038387709
 C       -5.306134037    13.912621867    -5.015368057
 C       -4.994978230    13.670691095    -3.681230135
 N       -4.762030478    13.585835594    -7.401978050
 C       -4.682141191    12.426850502    -8.321976560
 C       -5.843302732    14.515023732    -7.767114737
 C       -5.225097828    11.097311944    -7.767163234
 C       -6.699145430    11.163899072    -7.321907391
 N       -7.000590282    10.309685728    -6.144590561
 C       -6.409294972     9.020587718    -6.199164535
 C       -6.605793396     8.243543254    -7.359576916
 C       -6.046976195     6.979937576    -7.455456591
 C       -5.315588873     6.428556771    -6.391940503
 C       -5.146762358     7.189952042    -5.233967745
 C       -5.687995288     8.466321922    -5.129370133
 C       -6.830934570    11.016415587    -4.861408278
 C       -4.746935211     5.088367705    -6.548115673
 C       -4.031841682     4.457566787    -5.607196650
Si       -3.312144712     2.785885508    -5.778449065
 C       -3.734182146     1.722453190    -4.339620814
 C       -4.468987801     2.207848183    -3.254115076
 C       -4.772841118     1.374530943    -2.177091106
 C       -4.361829367     0.039314087    -2.169665427
 C       -3.630227463    -0.446416474    -3.261836996
 C       -3.318574653     0.383888557    -4.333410762
 C       -4.653113812    -0.872274530    -1.070150633
 C       -5.342040130    -0.543504171     0.035684614
 C       -5.627890264    -1.464392837     1.130510707
 C       -5.201254294    -2.795051920     1.123644710
 C       -5.495213827    -3.643668583     2.190342285
 C       -6.221355435    -3.176643137     3.290406686
 C       -6.646724251    -1.841218378     3.301964418
 C       -6.350455835    -0.996267479     2.235983346
Si       -6.616085007    -4.286143159     4.704792034
 C       -6.346338305    -6.079338313     4.267880815
 C       -5.489310282    -3.833310586     6.171189110
 C       -8.426672209    -3.997238382     5.214068164
 C       -3.872793075     1.992803366    -7.411868407
 C       -1.413221877     2.952791528    -5.765090438
 C       -5.421827703    12.529465593     1.913150546
 C       -2.576585994    13.683219312     1.525101701
 C       -0.656880029    -0.926514386    -1.525829979
 C       -0.645192973    -0.899024434     1.550315511
 H        0.708204412     2.419793886     1.561971579
 H       -0.139342691     4.693455563     1.581070075
 H       -2.976637365     3.705279770    -1.504393294
 H       -2.170787533     1.417955018    -1.548906798
 H       -2.958101725     5.900220458    -0.690805897
 H       -0.901447206     6.556215404     1.529661100
 H       -0.879432265     8.742646138     2.350450982
 H       -1.689009153    11.037177066     2.409798606
 H       -4.556428057    10.051868419    -0.714628245
 H       -3.719470766     7.772309454    -0.734748669
 H       -5.113691787    13.661479694    -0.970365109
 H       -2.832931841    11.718251829    -1.861618209
 H       -2.405154703    11.509459916    -4.095849452
 H       -2.824674125    12.065190773    -6.455110157
 H       -6.138717237    14.567184732    -5.250359563
 H       -5.579647129    14.164398170    -2.903831002
 H       -5.622123680    14.921731441    -8.772312904
 H       -5.862006858    15.379529191    -7.082134193
 H       -6.844369032    14.054638986    -7.798003095
 H       -7.321386253    12.002345466    -4.895633984
 H       -5.776121115    11.188695078    -4.580506604
 H       -7.328161303    10.434988966    -4.064788615
 H       -7.198308292     8.639792293    -8.179979376
 H       -6.193148648     6.400599303    -8.366998527
 H       -4.579845030     6.785858572    -4.393587733
 H       -5.524768605     9.029670577    -4.214059205
 H       -4.975189222     4.637930739    -7.523391415
 H       -3.812480929     4.941320452    -4.640885592
 H       -4.834473630     3.238472717    -3.215859086
 H       -5.340596976     1.775360761    -1.338922230
 H       -3.304516589    -1.485193146    -3.277158125
 H       -2.739439003    -0.048739695    -5.154290214
 H       -4.266076868    -1.887016224    -1.203400456
 H       -5.731061272     0.469821067     0.172027580
 H       -4.636404097    -3.184493373     0.278490398
 H       -5.138722152    -4.675363157     2.126744579
 H       -7.217243130    -1.421771495     4.135568869
 H       -6.686871886     0.038761641     2.263846274
 H       -5.199504249    12.676232366    -9.273392505
 H       -3.602855529    12.300220728    -8.581763219
 H       -5.100834341    10.308237387    -8.534206537
 H       -4.597625542    10.755411552    -6.917928696
 H       -6.999570817    12.205261401    -7.082289798
 H       -7.368209258    10.833373290    -8.147574391
 H        2.264071797    -1.029270112    -0.015787503
 H        2.276234670     0.505125357     0.890946991
 H        2.257691549     0.524001808    -0.890540472
 H       -6.629922614    -6.740289591     5.106356491
 H       -5.290097335    -6.287540097     4.023451207
 H       -6.958459498    -6.370360229     3.394966343
 H       -5.720768333    -4.585807634     6.979032091
 C       -3.994090965    -3.950298007     5.821515944
 C       -5.753257604    -2.427192496     6.738652481
 H       -8.495601911    -2.910436913     5.511861790
 C       -9.409455847    -4.230098869     4.052301553
 C       -8.866762444    -4.844598569     6.421167333
 H       -3.725993521     2.791700533    -8.197302111
 C       -3.057554647     0.762590741    -7.848042355
 C       -5.364852097     1.612644815    -7.388322770
 H       -1.014334817     1.903496259    -5.878833777
 C       -0.874573350     3.800809852    -6.929592524
 C       -0.880653109     3.522719552    -4.438488036
 H       -5.781724304    13.597854842     1.870643822
 C       -6.544336403    11.625495600     1.372021329
 C       -5.157955492    12.171195262     3.385969990
 H       -2.353774777    13.342963014     2.577694425
 C       -1.260852718    13.664799791     0.726325815
 C       -3.096850761    15.130216873     1.594074597
 H       -1.779873243    -0.791488650    -1.496030716
 C       -0.141315204    -0.335476648    -2.850456457
 C       -0.369899764    -2.438443948    -1.510299291
 H       -0.246488568    -1.951789462     1.481604077
 C       -0.132768200    -0.281433691     2.864453068
 C       -2.180268890    -0.968976202     1.608309065
 H       -3.701826971    -4.953557279     5.485947114
 H       -3.382053362    -3.733185553     6.708801159
 H       -3.679306942    -3.234960392     5.047878049
 H       -6.782312335    -2.285701569     7.092323239
 H       -5.530551313    -1.627466991     6.017905654
 H       -5.103789885    -2.245039651     7.607404199
 H       -9.189983788    -3.614765692     3.167971237
 H      -10.430549251    -3.966766971     4.363411677
 H       -9.446908264    -5.277571229     3.724929474
 H       -8.252479210    -4.679041828     7.315740633
 H       -8.867790029    -5.922286353     6.210744693
 H       -9.897703217    -4.586582185     6.704543225
 H       -1.978293808     0.951422227    -7.909805311
 H       -3.370269389     0.445542174    -8.853857174
 H       -3.212396919    -0.107100772    -7.195775042
 H       -6.029341224     2.452737062    -7.142149971
 H       -5.587139123     0.802958522    -6.678545154
 H       -5.678939166     1.250167200    -8.377133288
 H       -1.146683511     3.409775799    -7.917996460
 H        0.224315173     3.825347454    -6.900144011
 H       -1.205694835     4.848168030    -6.884711660
 H       -1.202102925     2.954010517    -3.552534393
 H       -1.162905271     4.571919618    -4.276543621
 H        0.218470839     3.496637972    -4.430994425
 H       -6.828911551    11.854799847     0.336091118
 H       -7.453536098    11.750891621     1.976952002
 H       -6.290710285    10.556455268     1.418652149
 H       -4.430159800    12.833344371     3.872282284
 H       -4.809949584    11.136701012     3.519138312
 H       -6.087730166    12.257830694     3.966760322
 H       -0.792711679    12.671943157     0.676351843
 H       -0.523393133    14.329770380     1.197485592
 H       -1.383568294    14.022748551    -0.306396517
 H       -3.995076597    15.242068885     2.214514894
 H       -3.317774928    15.552315860     0.603721486
 H       -2.332896105    15.782688552     2.041441403
 H       -0.336446906     0.741936858    -2.955232257
 H       -0.646494101    -0.817776965    -3.699558038
 H        0.934938560    -0.491606909    -2.997445724
 H       -0.803939833    -2.951836609    -0.642281946
 H        0.702138049    -2.671893225    -1.534632262
 H       -0.807571132    -2.912800706    -2.400201710
 H        0.961196077    -0.250958905     2.936096610
 H       -0.480813705    -0.879672440     3.719140988
 H       -0.510838638     0.737324583     3.030688312
 H       -2.631256877    -1.473137899     0.743173990
 H       -2.653456288     0.020161954     1.692176208
 H       -2.502988199    -1.536878905     2.493036897

