187   

Si        0.000000000     0.000000000     0.000000000
 C        1.865169035     0.000000000     0.000000000
 C       -0.661604620     1.718362380     0.000000000
 C       -0.032325186     2.700477598    -0.774460432
 C       -0.514417775     4.008275654    -0.790939883
 C       -1.638456786     4.365106839    -0.040233365
 C       -2.271325026     3.379641872     0.727970740
 C       -1.792780817     2.071560789     0.745103397
 C       -2.177243725     5.721221985    -0.027735024
 C       -1.664786742     6.752760894    -0.720006484
 C       -2.199952281     8.110075866    -0.710615362
 C       -3.322895329     8.473466224     0.037334772
 C       -3.799950904     9.784031321     0.016211605
 C       -3.174279134    10.755243804    -0.771075589
 C       -2.050498624    10.392530820    -1.526355356
 C       -1.567987943     9.087448885    -1.491308434
Si       -3.771317278    12.494853458    -0.827634789
 C       -3.611991268    13.192433317    -2.510639580
 C       -3.692214764    12.457306621    -3.628190118
 C       -3.567558715    12.995645887    -4.983072488
 C       -3.671316515    12.114817069    -6.070394101
 C       -3.561200109    12.569663275    -7.373213539
 C       -3.293395049    13.931446610    -7.633999709
 C       -3.188329067    14.815527784    -6.544755340
 C       -3.346140032    14.349544777    -5.244962783
 N       -3.186646720    14.366113398    -8.968269506
 C       -2.483201866    13.465428423    -9.899302985
 C       -2.868043007    15.785675486    -9.187604754
 C       -1.055543065    13.094369827    -9.446824880
 C       -0.162475932    12.699941830   -10.637717477
 N        0.716379075    13.785218744   -11.135891936
 C       -0.001802380    14.964775280   -11.484161901
 C       -0.878162810    14.882948328   -12.583955845
 C       -1.606863869    15.993988799   -12.975386453
 C       -1.465943468    17.220681063   -12.307824308
 C       -0.577267731    17.300956822   -11.233506946
 C        0.157446267    16.191955477   -10.826710700
 C        1.891892980    13.993849751   -10.271111978
 C       -2.259432026    18.365891230   -12.760583931
 C       -2.202743417    19.578843052   -12.196638332
Si       -3.160586454    21.049940277   -12.706767460
 C       -3.959884331    21.776816088   -11.218086977
 C       -4.154522573    20.992422875   -10.075949087
 C       -4.759244836    21.532934182    -8.942024779
 C       -5.192400700    22.861645045    -8.928226800
 C       -5.002634608    23.642225711   -10.076491882
 C       -4.395078574    23.107440658   -11.209742357
 C       -5.829827803    23.467743718    -7.763805815
 C       -6.068652843    22.829349289    -6.605613102
 C       -6.705659716    23.431928538    -5.439357435
 C       -7.136966336    24.760674075    -5.417724110
 C       -7.741500376    25.295766607    -4.280251086
 C       -7.932574381    24.509554757    -3.139694085
 C       -7.501110027    23.176221788    -3.159081139
 C       -6.893749357    22.646456406    -4.294048137
Si       -8.728920258    25.201908404    -1.631079813
 C       -9.594146230    26.814589147    -1.991239860
 C       -9.972819192    23.922397792    -0.968410051
 C       -7.401595807    25.499943844    -0.299578945
 C       -1.973636383    22.314903305   -13.485050698
 C       -4.498743095    20.596241262   -13.977866232
 C       -5.594176240    12.591770413    -0.291353918
 C       -2.727421595    13.544830959     0.366350593
 C       -0.633716027    -0.896527742    -1.555305639
 C       -0.642106054    -0.940870983     1.525769105
 H        0.850918991     2.482446008    -1.381804207
 H       -0.004431809     4.753816681    -1.398262847
 H       -3.149255168     3.635012734     1.318433279
 H       -2.331861762     1.346032557     1.360300293
 H       -3.059807421     5.857680736     0.603791977
 H       -0.781837872     6.614595469    -1.351189142
 H       -3.833984689     7.732975125     0.649504627
 H       -4.675893767    10.010167041     0.630145046
 H       -1.522536139    11.111880845    -2.161872340
 H       -0.691887859     8.825098997    -2.081185306
 H       -3.460867929    14.280890930    -2.549912620
 H       -3.851122481    11.368936758    -3.610877046
 H       -3.854330427    11.054790624    -5.889109768
 H       -3.683400678    11.872264304    -8.197023374
 H       -2.985546582    15.869823452    -6.702830254
 H       -3.275842889    15.057723952    -4.418365395
 H       -2.894877344    16.009436514   -10.271001945
 H       -1.876712262    16.082164621    -8.809045636
 H       -3.643677659    16.413111991    -8.713228475
 H        2.480597144    13.059580155   -10.250086985
 H        1.652713414    14.276333432    -9.234252200
 H        2.539454269    14.771138876   -10.713129356
 H       -0.969499010    13.944664585   -13.127571878
 H       -2.288820477    15.915230503   -13.822320979
 H       -0.445411481    18.245414196   -10.702917426
 H        0.838989084    16.286443049    -9.986135443
 H       -2.912412530    18.133104862   -13.611191282
 H       -1.525570077    19.780164433   -11.348481551
 H       -3.842886688    19.943515851   -10.030605603
 H       -4.895552194    20.904721294    -8.063384276
 H       -5.333802990    24.678894897   -10.086073858
 H       -4.272697997    23.763044164   -12.076111782
 H       -6.115236242    24.515876291    -7.891535119
 H       -5.783976788    21.780395903    -6.479477376
 H       -7.003623374    25.392399474    -6.294006555
 H       -8.058208262    26.341517745    -4.323368557
 H       -7.624854970    22.514284459    -2.297275705
 H       -6.564913650    21.608869181    -4.289841812
 H       -3.098635601    12.546469853   -10.027035842
 H       -2.460956511    13.953259230   -10.901442029
 H       -0.604979943    13.942300655    -8.895928136
 H       -1.101556487    12.270721432    -8.710293912
 H        0.484560128    11.837550120   -10.362279004
 H       -0.780009250    12.349257105   -11.494842734
 H        2.263404558    -1.029064118     0.047918333
 H        2.258146458     0.550872477     0.874341828
 H        2.277480560     0.476136941    -0.906417370
 H      -10.110751664    27.198446976    -1.093374211
 H      -10.355282649    26.687019089    -2.782407868
 H       -8.886926514    27.593406591    -2.326175515
 H       -9.367985998    23.001305753    -0.722896248
 C      -10.689255583    24.371374462     0.317592647
 C      -11.027141037    23.526887929    -2.017935395
 H       -7.942288840    25.973491469     0.570175635
 C       -6.731532777    24.208212026     0.201944266
 C       -6.305235628    26.474255975    -0.768139350
 H       -2.614350806    23.189942831   -13.797496777
 C       -0.921786770    22.829564931   -12.486278633
 C       -1.257951743    21.777723130   -14.736696029
 H       -3.964079419    20.058547627   -14.813736855
 C       -5.561118374    19.645462861   -13.396319941
 C       -5.209122293    21.822042778   -14.578977856
 H       -5.636310551    12.169596349     0.753910571
 C       -6.136537679    14.031577414    -0.243725717
 C       -6.512978275    11.744029060    -1.189417747
 H       -3.138355049    14.593379527     0.299429690
 C       -2.834335829    13.080781429     1.829398596
 C       -1.242621922    13.587535307    -0.037497569
 H       -0.174288270    -1.926469013    -1.525033490
 C       -2.164624430    -1.055537311    -1.578751267
 C       -0.187624101    -0.214269739    -2.861304924
 H       -1.768396134    -0.884952335     1.473521273
 C       -0.248233914    -2.429220229     1.538657010
 C       -0.195004460    -0.297732535     2.851290893
 H      -10.000998255    24.608893185     1.139037140
 H      -11.339607322    23.564437133     0.685648590
 H      -11.339657278    25.242574371     0.163518817
 H      -10.588826674    23.142079223    -2.949980442
 H      -11.698352477    24.353737995    -2.285347318
 H      -11.667111436    22.723699458    -1.625574242
 H       -7.439134908    23.488783812     0.633019511
 H       -6.011435508    24.444259130     0.999102681
 H       -6.160301767    23.691768520    -0.582353365
 H       -6.692940926    27.456626239    -1.066941661
 H       -5.714213984    26.080325777    -1.607494174
 H       -5.592936836    26.660905899     0.048394047
 H       -1.360438226    23.270173507   -11.579784073
 H       -0.317983422    23.622433693   -12.950658036
 H       -0.214866097    22.050861088   -12.168899704
 H       -1.946542128    21.469892939   -15.534104398
 H       -0.597436511    20.925870737   -14.520288618
 H       -0.617718709    22.560108904   -15.169183963
 H       -5.143116055    18.721349692   -12.974206583
 H       -6.262224196    19.335972910   -14.184142271
 H       -6.170331806    20.117559379   -12.611624698
 H       -4.530396848    22.504509322   -15.106196247
 H       -5.761512858    22.407364749   -13.830249354
 H       -5.953481275    21.497883214   -15.321040600
 H       -5.582017722    14.684148071     0.442412388
 H       -7.177539161    14.028957245     0.110404977
 H       -6.150304209    14.515317210    -1.230577061
 H       -6.228081174    10.683744242    -1.231172924
 H       -6.556315714    12.113570367    -2.224670427
 H       -7.543680513    11.771493728    -0.809183504
 H       -3.858990792    13.107288303     2.221596970
 H       -2.240336754    13.740809993     2.478048925
 H       -2.442783541    12.065346204     1.985948193
 H       -1.078420488    13.960837105    -1.057552632
 H       -0.750920718    12.607189976     0.041044369
 H       -0.689365108    14.262388822     0.630898150
 H       -2.556392230    -1.625434605    -0.726596161
 H       -2.472382325    -1.603093444    -2.481321578
 H       -2.694191109    -0.092575136    -1.609363512
 H        0.902141508    -0.130304077    -2.959473182
 H       -0.614520943     0.791560456    -2.984189724
 H       -0.529207774    -0.799891844    -3.726981844
 H       -0.604399507    -2.980735917     0.658934006
 H       -0.692513904    -2.927130475     2.412825897
 H        0.835855220    -2.585626682     1.615154438
 H       -0.466336749     0.763808740     2.936871508
 H        0.887811805    -0.374472152     3.018861527
 H       -0.675409150    -0.807512237     3.698536387

