187   

Si        0.000000000     0.000000000     0.000000000
 C        1.865410620     0.000000000     0.000000000
 C       -0.683121210     1.709303608     0.000000000
 C        0.133331979     2.816193580    -0.252297368
 C       -0.398859906     4.105625114    -0.248915808
 C       -1.757105036     4.317320470     0.001214857
 C       -2.574499085     3.206689989     0.251204125
 C       -2.046097559     1.918918990     0.250735237
 C       -2.358534979     5.646650203     0.015064240
 C       -1.691806382     6.792402191    -0.205730996
 C       -2.297707514     8.119823520    -0.190853877
 C       -1.486434710     9.234963696    -0.437634000
 C       -2.021718900    10.520901311    -0.433371138
 C       -3.381507202    10.722816548    -0.168807084
 C       -4.193661017     9.609896375     0.078780391
 C       -3.657320522     8.323503549     0.062057604
Si       -4.118325960    12.408522219    -0.155952719
 C       -5.492709721    12.543973238     1.041919391
 C       -5.576528582    11.833810583     2.175227199
 C       -6.676828437    11.942570587     3.133742099
 C       -6.652508200    11.144613819     4.286637725
 C       -7.669008217    11.208936150     5.225508172
 C       -8.734924856    12.120434443     5.064462040
 C       -8.759968577    12.921748214     3.906529422
 C       -7.756683259    12.810710668     2.952792801
 N       -9.762025365    12.178313161     6.022779215
 C       -9.393272085    11.894979480     7.421640233
 C      -10.731696043    13.279621515     5.895166419
 C       -8.364963545    12.889064083     7.991134939
 C       -8.316214542    12.893897805     9.527753052
 N       -9.576567082    13.256956860    10.218767373
 C      -10.375961041    14.209769546     9.543927069
 C       -9.780570313    15.441278126     9.198246663
 C      -10.516717596    16.409554827     8.537096946
 C      -11.870035040    16.202458509     8.227599764
 C      -12.462177973    14.993303679     8.597034988
 C      -11.735121910    14.008854519     9.257860094
 C      -10.283039340    12.095610602    10.784448990
 C      -12.604436446    17.258340143     7.527031941
 C      -13.895335177    17.165763167     7.183954826
Si      -14.871739101    18.440566654     6.311351956
 C      -15.736852112    17.651474904     4.892673415
 C      -15.206272223    16.493554444     4.313024461
 C      -15.849494875    15.883235779     3.237363921
 C      -17.026818034    16.421656607     2.710289495
 C      -17.551145851    17.585489515     3.288290462
 C      -16.914251670    18.195611765     4.366232976
 C      -17.733175456    15.816728099     1.585913263
 C      -17.338056609    14.704182721     0.944074819
 C      -18.043464071    14.098298490    -0.180338882
 C      -19.223017850    14.631322800    -0.706342867
 C      -19.864593959    14.018860179    -1.782790285
 C      -19.335627999    12.860865062    -2.361166324
 C      -18.152087133    12.324455192    -1.835815236
 C      -17.516873193    12.935122326    -0.758121477
Si      -20.169743924    12.040159185    -3.782204486
 C      -21.505058997    13.118872747    -4.512541985
 C      -18.851983529    11.644534917    -5.097617499
 C      -20.955430676    10.406436178    -3.202162321
 C      -16.142292767    19.173692605     7.521569083
 C      -13.763686384    19.841731902     5.661372304
 C       -2.794003834    13.703171286     0.279804712
 C       -4.797110376    12.789771952    -1.891719895
 C       -0.607451660    -0.926349507    -1.548132627
 C       -0.657109042    -0.902603865     1.541880550
 H        1.202834399     2.713208063    -0.454889341
 H        0.258453844     4.950713002    -0.445242104
 H       -3.635290860     3.349708284     0.448295466
 H       -2.732190578     1.091809329     0.454175456
 H       -3.432353301     5.659471984     0.224643922
 H       -0.618563368     6.780452455    -0.415810103
 H       -0.425698416     9.098125271    -0.638019631
 H       -1.341245971    11.351587308    -0.638683212
 H       -5.264431274     9.708136775     0.289250440
 H       -4.310852734     7.474145553     0.252793391
 H       -6.263868717    13.281099704     0.772637292
 H       -4.815531043    11.097974660     2.472261280
 H       -5.825600471    10.450774244     4.443958092
 H       -7.637050677    10.551237862     6.088775633
 H       -9.565451588    13.629499341     3.738563584
 H       -7.810307861    13.430332475     2.056419264
 H      -11.460065761    13.244640253     6.725116342
 H      -11.303617720    13.151775860     4.958515364
 H      -10.267884533    14.280074270     5.903188901
 H       -9.586780792    11.533198837    11.431407141
 H      -10.699078218    11.403414473    10.036216947
 H      -11.102234376    12.450173290    11.436065301
 H       -8.740581552    15.625990808     9.458471921
 H      -10.038705329    17.351342841     8.265540731
 H      -13.514717652    14.810399396     8.373700975
 H      -12.230562133    13.082759736     9.532311181
 H      -11.990447706    18.140805526     7.306509097
 H      -14.485776738    16.266548692     7.429850318
 H      -14.284760207    16.029472274     4.680506842
 H      -15.421920074    14.979315708     2.807066792
 H      -18.466858924    18.020437129     2.892483490
 H      -17.369379439    19.100725295     4.777192536
 H      -18.642725523    16.342079167     1.280579447
 H      -16.428404906    14.178576048     1.249476885
 H      -19.653614073    15.533867993    -0.276701840
 H      -20.784692877    14.481892584    -2.149954653
 H      -17.691945522    11.421805247    -2.247854257
 H      -16.599393287    12.502692261    -0.363103474
 H      -10.329180193    11.909631221     8.025931660
 H       -9.009407365    10.852779659     7.486350544
 H       -7.357880290    12.656042237     7.592066998
 H       -8.588760317    13.908191296     7.615047450
 H       -7.966574400    11.905399546     9.897065849
 H       -7.551373805    13.636674476     9.863535456
 H        2.263226709    -1.029684113     0.042101893
 H        2.262491816     0.544581558     0.875835783
 H        2.274691609     0.477351541    -0.907584601
 H      -21.970221759    12.637052134    -5.390981574
 H      -21.093099849    14.088537528    -4.846286491
 H      -22.308065968    13.326450887    -3.783779345
 H      -18.107992335    10.960851195    -4.593781510
 C      -19.412823278    10.906714292    -6.326182753
 C      -18.093811976    12.898953372    -5.568261317
 H      -21.497643121     9.994224662    -4.101939734
 C      -19.930097173     9.354936614    -2.741912844
 C      -21.986890578    10.614364972    -2.077933107
 H      -16.702957057    19.963636079     6.942561145
 C      -17.162001978    18.130003362     8.011087060
 C      -15.490877333    19.849845961     8.740794611
 H      -13.181260197    20.217328758     6.552016635
 C      -12.758847943    19.351397151     4.602560189
 C      -14.558597692    21.023584992     5.078346384
 H       -1.998479407    13.618230013    -0.515596201
 C       -3.328917430    15.146336257     0.262916656
 C       -2.138155664    13.429957131     1.645351368
 H       -5.225461121    13.832026319    -1.837398282
 C       -3.711855604    12.774554058    -2.982189997
 C       -5.928756169    11.828916735    -2.298525692
 H       -0.103335503    -1.935402603    -1.515480154
 C       -2.129153545    -1.155732919    -1.575002614
 C       -0.191532813    -0.226952594    -2.855283690
 H       -1.781869749    -0.901397922     1.444386288
 C       -0.194554533    -2.367143321     1.640230351
 C       -0.297901928    -0.173748221     2.849456483
 H      -19.904441806     9.957637711    -6.076233069
 H      -18.595940189    10.656113602    -7.018654254
 H      -20.126360225    11.511875150    -6.900916593
 H      -17.614886793    13.450113323    -4.746234178
 H      -18.731741688    13.606822800    -6.113745335
 H      -17.286584248    12.614879388    -6.258364845
 H      -19.202642348     9.086366231    -3.518356624
 H      -20.445639226     8.422191534    -2.470046758
 H      -19.371618575     9.666195454    -1.847898954
 H      -22.806356243    11.289145903    -2.356820649
 H      -21.537280232    11.001694748    -1.152249041
 H      -22.455269731     9.655262959    -1.814298056
 H      -17.699785740    17.628804850     7.193987222
 H      -17.929607620    18.615252915     8.630799266
 H      -16.708817062    17.349687471     8.637815628
 H      -14.812258108    20.670001806     8.473086903
 H      -14.929525700    19.145909010     9.371843329
 H      -16.265172115    20.289825630     9.385565212
 H      -12.119563813    18.528200683     4.949529974
 H      -12.082316930    20.169325254     4.317277685
 H      -13.247087909    19.019109277     3.674903811
 H      -15.224238479    21.502830152     5.807541036
 H      -15.162950345    20.743985057     4.203784601
 H      -13.868157556    21.807140619     4.733359860
 H       -3.740918639    15.446883353    -0.708797614
 H       -2.514071805    15.851488276     0.481494336
 H       -4.100917588    15.324634129     1.024676022
 H       -1.678310051    12.434609281     1.717908888
 H       -2.842812339    13.529124839     2.483934302
 H       -1.333859320    14.155479110     1.830608689
 H       -2.912232057    13.506552952    -2.811577265
 H       -4.154312517    13.025463538    -3.957108387
 H       -3.242223706    11.788007363    -3.104963380
 H       -6.773226266    11.827077459    -1.595705203
 H       -5.587276755    10.789625321    -2.409668223
 H       -6.340346581    12.122430196    -3.274507110
 H       -2.499690159    -1.724646984    -0.712989209
 H       -2.405066776    -1.737245603    -2.466836412
 H       -2.700908083    -0.218865165    -1.633294841
 H        0.893768795    -0.097350938    -2.955048838
 H       -0.657137980     0.761727543    -2.977087938
 H       -0.510070391    -0.825456229    -3.720739877
 H       -0.477976494    -2.972099269     0.769284701
 H       -0.658598695    -2.849329866     2.512950149
 H        0.890531563    -2.465305474     1.776885129
 H       -0.649122873     0.867786816     2.875717835
 H        0.780955714    -0.164159284     3.053412723
 H       -0.770029721    -0.678387186     3.704356036

