187   

Si        0.000000000     0.000000000     0.000000000
 C        1.865220458     0.000000000     0.000000000
 C       -0.676265856     1.712098734     0.000000000
 C        0.100000340     2.789347775     0.439784620
 C       -0.417557150     4.084440221     0.437586773
 C       -1.722240841     4.331802346     0.002493686
 C       -2.500512076     3.250672446    -0.432152921
 C       -1.986748310     1.956767096    -0.431337296
 C       -2.305803966     5.668914096    -0.017515760
 C       -1.670614050     6.787761190     0.370734233
 C       -2.256267948     8.124080804     0.349858344
 C       -1.480958759     9.207093035     0.783516563
 C       -1.998460569    10.500454872     0.781092418
 C       -3.300364317    10.742873174     0.328656483
 C       -4.075919965     9.662014289    -0.107977819
 C       -3.560081303     8.367613895    -0.092156814
Si       -4.016383668    12.436465749     0.311086441
 C       -5.099084832    12.701202955    -1.139605488
 C       -4.912608182    12.081683507    -2.312540127
 C       -5.756174088    12.267605356    -3.493250783
 C       -5.444296353    11.552692819    -4.658633946
 C       -6.207062008    11.688409746    -5.806564324
 C       -7.255016447    12.631319240    -5.858004283
 C       -7.556176064    13.363677395    -4.695610437
 C       -6.832836091    13.157020223    -3.526836390
 N       -8.016462899    12.748336113    -7.041192151
 C       -7.273123578    12.704436652    -8.317051839
 C       -9.066737288    13.781968472    -7.043378662
 C       -6.321995986    13.894148431    -8.549296914
 C       -4.845228464    13.507831617    -8.327065866
 N       -3.958942310    14.652100123    -8.023016805
 C       -4.287512657    15.279450634    -6.782625993
 C       -4.045121171    14.540592693    -5.610088354
 C       -4.340163516    15.087508712    -4.372108720
 C       -4.835688351    16.395691543    -4.263480733
 C       -5.052901544    17.130344496    -5.430447371
 C       -4.785865973    16.583716515    -6.681970772
 C       -3.799245568    15.564110484    -9.169133137
 C       -5.132072664    16.927624010    -2.931510702
 C       -5.607721429    18.160664047    -2.712586892
Si       -5.987540553    18.854450511    -1.066902816
 C       -6.500162653    17.538290803     0.110356883
 C       -7.278978722    16.471122500    -0.359316062
 C       -7.683127863    15.459355028     0.506134801
 C       -7.348756112    15.506638278     1.866363879
 C       -6.581721586    16.576737080     2.333760805
 C       -6.155637029    17.580517844     1.464114449
 C       -7.795423609    14.422262862     2.733918248
 C       -7.526752630    14.331768765     4.047489216
 C       -7.976493917    13.244486539     4.909756796
 C       -8.743614076    12.176808349     4.436030887
 C       -9.153248593    11.157018715     5.294223261
 C       -8.796561456    11.179884637     6.646265246
 C       -8.021497541    12.245973656     7.122312525
 C       -7.614871619    13.263117262     6.263119268
Si       -9.331941865     9.838759013     7.788015061
 C      -10.725691551     8.835380773     7.060553263
 C       -7.852258948     8.688027214     8.119942653
 C       -9.874593731    10.622072432     9.435287544
 C       -4.462026715    19.784343053    -0.416505110
 C       -7.423703113    20.087200987    -1.256988687
 C       -5.074466906    12.623096628     1.877980465
 C       -2.672795568    13.778989189     0.306525741
 C       -0.649159960    -0.915538243    -1.538090306
 C       -0.626071793    -0.913016855     1.548264327
 H        1.127294558     2.658477602     0.790873191
 H        0.208412559     4.906069459     0.780987382
 H       -3.519554239     3.421204368    -0.774189456
 H       -2.641651000     1.153675670    -0.780354005
 H       -3.336212781     5.712547261    -0.382353870
 H       -0.640503505     6.744982275     0.736204505
 H       -0.463452777     9.039179655     1.130557506
 H       -1.349310327    11.304827579     1.137179923
 H       -5.100473961     9.793807017    -0.472635650
 H       -4.184061475     7.543508570    -0.432606517
 H       -5.914285952    13.424628419    -0.988462534
 H       -4.098253645    11.361180183    -2.478462002
 H       -4.607040113    10.853060494    -4.655393724
 H       -5.992249734    11.064397931    -6.669668612
 H       -8.350579869    14.102890846    -4.692510543
 H       -7.099866242    13.723456936    -2.633112271
 H       -9.617670887    13.749576866    -7.998163386
 H       -8.684428672    14.805574630    -6.898082171
 H       -9.796851123    13.555890651    -6.245087815
 H       -3.362197568    14.996849962   -10.009190396
 H       -3.078766101    16.357749156    -8.903384703
 H       -4.731687078    16.034100880    -9.515164268
 H       -3.636515511    13.533365954    -5.682236072
 H       -4.174750768    14.490905743    -3.470274153
 H       -5.441207453    18.147117405    -5.372221606
 H       -4.976593585    17.174655677    -7.571917631
 H       -4.937950855    16.208006942    -2.122829235
 H       -5.782606103    18.859103978    -3.545797565
 H       -7.577954427    16.391143356    -1.410485344
 H       -8.270419143    14.626889634     0.122308743
 H       -6.306485332    16.633821349     3.384952619
 H       -5.551680792    18.388502069     1.885213685
 H       -8.387961964    13.650437057     2.232452329
 H       -6.934635334    15.101357136     4.550580538
 H       -9.040243461    12.137989551     3.388964827
 H       -9.756870289    10.351280259     4.866952572
 H       -7.712400215    12.315664000     8.169067705
 H       -7.012467956    14.082293108     6.650966620
 H       -6.722282618    11.738804350    -8.370289494
 H       -8.024829253    12.653647325    -9.138161460
 H       -6.456298024    14.293672187    -9.569240037
 H       -6.590989288    14.728194570    -7.869785535
 H       -4.757697561    12.787862101    -7.479827990
 H       -4.441069552    12.988277955    -9.222248467
 H        2.263187619    -1.029489221    -0.043817321
 H        2.276562115     0.477137652     0.906563212
 H        2.259324710     0.546443416    -0.876297514
 H      -11.068792885     8.059639089     7.768317515
 H      -10.421309059     8.324484519     6.130272646
 H      -11.594379047     9.476526482     6.824650582
 H       -8.250055858     7.857724589     8.771813176
 C       -7.294745390     8.058949201     6.830065943
 C       -6.698014956     9.374338837     8.872323789
 H       -8.967725843    11.161747598     9.836240408
 C      -10.997270955    11.659559815     9.253036424
 C      -10.311884754     9.590092010    10.490078504
 H       -4.765087606    20.226421664     0.576306813
 C       -3.260632901    18.851905585    -0.180217506
 C       -4.022305916    20.938843210    -1.334787325
 H       -7.061575979    20.879741293    -1.973560942
 C       -8.678258614    19.433074701    -1.863575189
 C       -7.807582000    20.775848036     0.063972982
 H       -5.615559763    13.609198705     1.766443548
 C       -6.125476263    11.505465462     1.999269305
 C       -4.257088768    12.678162116     3.179254738
 H       -2.024428442    13.575170994     1.206660583
 C       -1.785360097    13.722463371    -0.949903314
 C       -3.246723243    15.199913066     0.447170262
 H       -1.773874128    -0.924891940    -1.442162067
 C       -0.293882340    -0.191344014    -2.849277373
 C       -0.173953240    -2.376778447    -1.628296551
 H       -0.154570010    -1.937270020     1.512976410
 C       -0.186497167    -0.229640452     2.856071815
 C       -2.154797452    -1.091314448     1.574060315
 H       -8.038997402     7.478944973     6.269581478
 H       -6.481664292     7.359537782     7.073109742
 H       -6.864651827     8.802197475     6.142640476
 H       -6.991715534     9.773744487     9.851084457
 H       -6.239742462    10.191341116     8.297020008
 H       -5.893814311     8.649412971     9.066425174
 H      -10.736034118    12.462948414     8.549518945
 H      -11.216583030    12.150453620    10.211933367
 H      -11.941182621    11.214874907     8.910883056
 H       -9.533918917     8.852290884    10.725539363
 H      -11.217758628     9.040502151    10.201875482
 H      -10.549416160    10.098290056    11.436049690
 H       -3.473955839    18.036183421     0.524647742
 H       -2.421287413    19.417975898     0.247382394
 H       -2.884345045    18.397189714    -1.108656537
 H       -4.802841011    21.693941180    -1.491801613
 H       -3.684572518    20.594152901    -2.322423756
 H       -3.169361990    21.469976480    -0.887907764
 H       -8.496668436    18.962954612    -2.839809909
 H       -9.457228286    20.191327325    -2.026456849
 H       -9.123726654    18.673150152    -1.205655208
 H       -6.984438025    21.345160062     0.514432522
 H       -8.180849232    20.071754063     0.821363720
 H       -8.619959898    21.496543830    -0.109438124
 H       -6.814990615    11.460216011     1.146779191
 H       -6.743266804    11.671782726     2.895613440
 H       -5.679303985    10.508559326     2.124255069
 H       -3.536447592    13.504507751     3.207101697
 H       -3.712251348    11.746479023     3.383065201
 H       -4.933875224    12.831325134     4.034693919
 H       -1.291334423    12.752179738    -1.092388842
 H       -0.982236738    14.469307547    -0.878502396
 H       -2.336839891    13.950941879    -1.873893764
 H       -3.855515727    15.341385555     1.350588217
 H       -3.863571172    15.498967812    -0.412677049
 H       -2.428236457    15.930878901     0.508886933
 H       -0.649144422     0.848673301    -2.880980463
 H       -0.763163038    -0.702434978    -3.701838737
 H        0.785067284    -0.177749361    -3.053089498
 H       -0.455549799    -2.980315229    -0.755808744
 H        0.912342308    -2.466628685    -1.760852037
 H       -0.630910219    -2.866444188    -2.500539217
 H        0.902577678    -0.136826080     2.955228884
 H       -0.524336074    -0.818816656     3.720675890
 H       -0.619519883     0.773513106     2.979867456
 H       -2.541417225    -1.660200983     0.719087564
 H       -2.695658590    -0.135040731     1.614839940
 H       -2.452820043    -1.649835395     2.473280145

