187   

Si        0.000000000     0.000000000     0.000000000
 C        1.865595224     0.000000000     0.000000000
 C       -0.675230923     1.712715352     0.000000000
 C        0.161564706     2.818836732     0.177972336
 C       -0.361131014     4.112132545     0.176179971
 C       -1.730243967     4.330256237     0.001490216
 C       -2.567086958     3.220049825    -0.173998852
 C       -2.049025150     1.928200312    -0.174720314
 C       -2.321778878     5.664254937    -0.007490689
 C       -1.632992000     6.807478260     0.147597109
 C       -2.223018614     8.141880415     0.138843180
 C       -1.385103698     9.251009230     0.312404363
 C       -1.904128572    10.543629090     0.311075486
 C       -3.278523222    10.759421948     0.153188802
 C       -4.116173811     9.652675027    -0.020788963
 C       -3.591547081     8.361521596    -0.036420761
Si       -3.989396611    12.455441949     0.147787905
 C       -5.419031773    12.649094509     1.274752120
 C       -6.599927923    13.186292525     0.939483150
 C       -7.735481631    13.334487648     1.853497254
 C       -8.920169563    13.915946428     1.374385375
 C      -10.020988904    14.078205467     2.198023306
 C       -9.959026294    13.719139066     3.560237302
 C       -8.773646513    13.139628424     4.040951025
 C       -7.693736198    12.929002957     3.188376812
 N      -11.115043648    13.903748836     4.367956947
 C      -11.691178763    15.268611570     4.245057881
 C      -10.989854453    13.440829086     5.760308734
 C      -12.980533800    15.495248448     5.051428241
 C      -14.134949531    14.539273046     4.687945566
 N      -14.714155689    14.695672476     3.339352329
 C      -13.948989796    14.132731414     2.288230062
 C      -13.560728095    12.781314759     2.415761676
 C      -12.813788675    12.178221306     1.422891673
 C      -12.504632658    12.863523945     0.234891923
 C      -12.926011006    14.183954180     0.091755312
 C      -13.641581361    14.819606482     1.104635750
 C      -15.268341098    16.037522942     3.100798059
 C      -11.710274463    12.154011099    -0.764381607
 C      -11.322270601    12.645587157    -1.949088665
Si      -10.323603990    11.618408512    -3.093021083
 C       -9.326430039    10.484778268    -2.033448727
 C       -8.780851418    11.020589170    -0.856941318
 C       -8.018192783    10.229654546    -0.007279801
 C       -7.791108257     8.878487018    -0.301610257
 C       -8.334372385     8.344666810    -1.471642162
 C       -9.090795727     9.141734008    -2.334253386
 C       -6.981908080     8.110809278     0.634990302
 C       -6.648161434     6.814992995     0.516161860
 C       -5.830667292     6.106379733     1.496889654
 C       -5.333572621     6.737827913     2.641250286
 C       -4.555762355     6.038841883     3.561592018
 C       -4.267024440     4.684450616     3.363905680
 C       -4.767341837     4.048828771     2.220952484
 C       -5.538277655     4.751896994     1.297792885
Si       -3.238639723     3.768979599     4.585022362
 C       -3.127110449     4.697012067     6.201795382
 C       -3.966578353     2.051086950     4.962569804
 C       -1.514198178     3.573064051     3.808820226
 C      -11.438050678    10.647842859    -4.282395720
 C       -9.173299924    12.750315537    -4.096344977
 C       -2.689770837    13.735528506     0.696247987
 C       -4.493480812    12.840040745    -1.650478732
 C       -0.660818098    -0.874766280    -1.556931751
 C       -0.603335703    -0.961594247     1.526190541
 H        1.240054000     2.712848954     0.320512476
 H        0.312923131     4.955963009     0.310837798
 H       -3.636854916     3.369920776    -0.312513929
 H       -2.750929801     1.102648617    -0.319936290
 H       -3.409766561     5.682930271    -0.138468229
 H       -0.548758527     6.789143580     0.289652011
 H       -0.315764331     9.104963463     0.447650660
 H       -1.197159644    11.366928310     0.440082819
 H       -5.199430338     9.759761897    -0.155990736
 H       -4.266353297     7.516620055    -0.179122229
 H       -5.227770122    12.286856261     2.297616344
 H       -6.815465366    13.557303617    -0.072179310
 H       -8.987330781    14.232671810     0.332185019
 H      -10.948456938    14.474103286     1.782902997
 H       -8.678736990    12.845833112     5.081067773
 H       -6.794800771    12.456343673     3.585745382
 H      -11.980803883    13.456225488     6.243531806
 H      -10.293152651    14.036699553     6.369942825
 H      -10.662275746    12.385008179     5.764750216
 H      -15.917404205    16.318392644     3.947403391
 H      -15.908292497    16.005990133     2.200236482
 H      -14.509293192    16.824191650     2.967375100
 H      -13.824294640    12.222215700     3.311082495
 H      -12.474593630    11.149688270     1.558188073
 H      -12.695439036    14.733520812    -0.820409775
 H      -13.943447354    15.851739641     0.966012611
 H      -11.443417063    11.135185379    -0.433485446
 H      -11.595438888    13.651193832    -2.286417978
 H       -8.934369795    12.066689591    -0.562644713
 H       -7.603105698    10.670983945     0.901501872
 H       -8.168424055     7.299460890    -1.721919274
 H       -9.484431316     8.674832907    -3.239490269
 H       -6.643395916     8.685931014     1.507155387
 H       -6.980537237     6.220517813    -0.336481278
 H       -5.541252491     7.792075680     2.820555980
 H       -4.187947459     6.591457055     4.430745132
 H       -4.567467329     2.992877605     2.015101424
 H       -5.922782966     4.239445199     0.418882858
 H      -10.943139641    16.040108076     4.538289781
 H      -11.923085174    15.435306071     3.164415136
 H      -12.775003312    15.410878072     6.135507612
 H      -13.302135460    16.544377463     4.897578687
 H      -13.786658282    13.485795513     4.806044217
 H      -14.968068966    14.675490892     5.415683034
 H        2.262824409    -1.029391636    -0.049937830
 H        2.275526026     0.470885250     0.910638666
 H        2.262298893     0.549728520    -0.872658442
 H       -2.553254903     4.124170091     6.951228948
 H       -4.128434410     4.891547906     6.624306217
 H       -2.619862625     5.669662756     6.072082041
 H       -3.403165293     1.684862013     5.869949118
 C       -5.461731516     2.119555095     5.326448394
 C       -3.779022260     1.009327746     3.846794513
 H       -1.666595183     2.965748550     2.866544749
 C       -0.899039846     4.922626437     3.397186254
 C       -0.515978918     2.824981906     4.709402044
 H      -10.746143666    10.013100933    -4.908628639
 C      -12.410242679     9.710461395    -3.542899472
 C      -12.246208091    11.548202909    -5.234264638
 H       -9.846828510    13.352602348    -4.772354904
 C       -8.388902618    13.736693580    -3.211583836
 C       -8.186594146    11.968587942    -4.980856457
 H       -1.793713426    13.577262712     0.029701848
 C       -3.164966333    15.188509569     0.513853127
 C       -2.243645317    13.541287219     2.156848031
 H       -5.062703017    13.812925330    -1.613557324
 C       -3.288348853    13.028234806    -2.589496613
 C       -5.414337415    11.763885756    -2.249806992
 H       -1.785524115    -0.866020619    -1.461108552
 C       -0.293972355    -0.128444352    -2.852323661
 C       -0.208457310    -2.340630926    -1.677685194
 H       -0.085014990    -1.963055479     1.474040777
 C       -0.196236325    -0.284254828     2.846500553
 C       -2.120823708    -1.216389481     1.539823752
 H       -5.673929198     2.778063197     6.178775293
 H       -5.827944537     1.122987840     5.610020600
 H       -6.090074879     2.453330198     4.488344270
 H       -2.728687432     0.874150742     3.551610691
 H       -4.354471028     1.240953290     2.940918594
 H       -4.130036053     0.025443388     4.189195826
 H       -1.524963948     5.480188775     2.681960673
 H        0.061628177     4.754601384     2.888967949
 H       -0.692125138     5.584315223     4.246839279
 H       -0.868511158     1.835820686     5.028159350
 H       -0.252143917     3.390710584     5.612808657
 H        0.425139146     2.659012808     4.164268200
 H      -11.908527206     8.994213891    -2.877706745
 H      -12.981248311     9.111416309    -4.265864832
 H      -13.151378341    10.255275154    -2.939718812
 H      -11.619069464    12.188988769    -5.866783056
 H      -12.962048452    12.193889385    -4.706751928
 H      -12.841086380    10.929312546    -5.921619214
 H       -9.036433784    14.383925291    -2.604958117
 H       -7.784362253    14.406082214    -3.839435111
 H       -7.684871525    13.234751574    -2.531054932
 H       -8.681672742    11.326734250    -5.721013217
 H       -7.498497196    11.335231787    -4.401626566
 H       -7.557426991    12.665171569    -5.553092179
 H       -3.414723305    15.437383283    -0.525662037
 H       -2.369570671    15.885238551     0.814084773
 H       -4.038962493    15.433907955     1.133916589
 H       -1.881540375    12.527831436     2.376940322
 H       -3.040764479    13.770872174     2.877659133
 H       -1.412574771    14.221910166     2.390168267
 H       -2.620186440    13.843914564    -2.286968578
 H       -3.637194866    13.276033007    -3.602385304
 H       -2.679550018    12.118386316    -2.690465234
 H       -6.312026221    11.558228560    -1.646466871
 H       -4.903018036    10.803162856    -2.407817595
 H       -5.773513754    12.082207179    -3.239288811
 H       -0.636799888     0.916288110    -2.862466466
 H       -0.769142699    -0.615352986    -3.715777219
 H        0.785173550    -0.124326680    -3.054870393
 H       -0.500135357    -2.958206200    -0.818519431
 H        0.876542617    -2.444251913    -1.811171933
 H       -0.671679250    -2.804630135    -2.560669782
 H        0.890448969    -0.184565842     2.965443680
 H       -0.544404422    -0.880528880     3.701724761
 H       -0.634616657     0.718657722     2.965045509
 H       -2.470695259    -1.795040382     0.675496203
 H       -2.711251793    -0.290181559     1.586056146
 H       -2.395509075    -1.801962100     2.429231650

