187   

Si        0.000000000     0.000000000     0.000000000
 C        1.865817079     0.000000000     0.000000000
 C       -0.669575228     1.713367236     0.000000000
 C        0.120312927     2.778518003     0.443730381
 C       -0.382808250     4.077259247     0.445356579
 C       -1.673880592     4.345494781    -0.016584950
 C       -2.463656025     3.278328651    -0.461291045
 C       -1.971371233     1.975571830    -0.443228102
 C       -2.226741421     5.695195901    -0.026576186
 C       -1.555379026     6.778514091     0.399625002
 C       -2.076692447     8.138751411     0.403520824
 C       -3.358998700     8.458891648    -0.047112431
 C       -3.813692501     9.777706631    -0.023575482
 C       -3.009241071    10.794140854     0.498816688
 C       -1.726827739    10.473028545     0.965372556
 C       -1.263400029     9.162790668     0.908713264
Si       -3.567294298    12.545523329     0.550061751
 C       -2.819177215    13.409062937     1.981154201
 C       -2.493633679    12.794175231     3.127036362
 C       -1.895239981    13.460469119     4.284615956
 C       -1.600429745    12.703356575     5.428079553
 C       -1.033392772    13.287909751     6.549727843
 C       -0.682158154    14.654710374     6.543339569
 C       -0.973549179    15.413642047     5.393686021
 C       -1.591234757    14.824739566     4.297612280
 N       -0.105850409    15.247868260     7.683990933
 C        0.726882275    14.385997431     8.541369333
 C        0.457739961    16.598315876     7.518209719
 C        1.955829584    13.797023412     7.828755107
 C        2.815287776    13.000506205     8.826985249
 N        3.760948963    12.061544195     8.207612329
 C        3.258589971    10.840526381     7.711253986
 C        1.900366004    10.484958699     7.804245097
 C        1.458844739     9.270116164     7.298971118
 C        2.355001617     8.343142690     6.752185265
 C        3.710048555     8.685430205     6.690693000
 C        4.160627650     9.911117183     7.158163570
 C        4.771806742    12.725129535     7.364985714
 C        1.831702154     7.078524731     6.234537029
 C        2.577602602     6.108750026     5.687563675
Si        1.901389850     4.531606763     5.045073713
 C        0.184511831     4.735078711     4.414832806
 C       -0.268995774     6.011724412     4.064561047
 C       -1.562063113     6.195795413     3.585261867
 C       -2.435146073     5.112951017     3.443981388
 C       -1.976976482     3.834584134     3.784150047
 C       -0.677903642     3.645865591     4.253662038
 C       -3.795073734     5.292636845     2.941999310
 C       -4.287253304     6.495169710     2.600558980
 C       -5.622480251     6.774299959     2.093268918
 C       -6.594899687     5.793750548     1.890092122
 C       -7.855055402     6.138996156     1.399833432
 C       -8.165504157     7.470309342     1.098420174
 C       -7.192612673     8.453772479     1.312948727
 C       -5.943617685     8.108213186     1.816076555
Si       -9.829922079     7.917517864     0.452159316
 C      -10.475333643     6.574095312    -0.671653124
 C      -10.974074721     8.159898974     1.952761186
 C       -9.794627007     9.536199062    -0.554898759
 C        3.027898450     3.912149190     3.643970530
 C        1.897127288     3.236342557     6.438439707
 C       -3.036834472    13.410019026    -1.055958418
 C       -5.464445583    12.615364901     0.695743659
 C       -0.665584539    -0.937921435    -1.513822376
 C       -0.617915175    -0.862898909     1.582056117
 H        1.145088585     2.636917119     0.800521874
 H        0.244341880     4.888538784     0.814159447
 H       -3.474683501     3.466055549    -0.817440150
 H       -2.635078850     1.180477977    -0.791698091
 H       -3.248150482     5.780094357    -0.406497757
 H       -0.535275803     6.681281720     0.786251478
 H       -4.015061001     7.677676665    -0.430016530
 H       -4.816748282     9.970281950    -0.414105089
 H       -1.051610364    11.230422577     1.378257197
 H       -0.260443758     8.932758003     1.264543015
 H       -2.663167611    14.488395168     1.844637191
 H       -2.651794310    11.716718593     3.287723326
 H       -1.829734139    11.636023297     5.442654148
 H       -0.854446410    12.678859972     7.431168257
 H       -0.729555426    16.469709743     5.347505585
 H       -1.822168559    15.441277813     3.427739966
 H        0.884029714    16.949245379     8.472807134
 H       -0.355600453    17.300486717     7.258054839
 H        1.241124952    16.656701164     6.745420999
 H        5.034427979    13.708688584     7.787028955
 H        4.438966583    12.868477708     6.323910538
 H        5.696364128    12.120787123     7.359078345
 H        1.175486885    11.167122804     8.238182472
 H        0.394753317     9.031968661     7.343751301
 H        4.428724015     7.981191511     6.269988117
 H        5.219529585    10.146486247     7.104034295
 H        0.740547224     6.991354242     6.351374576
 H        3.669674299     6.209252617     5.604410890
 H        0.368607021     6.900153618     4.130930490
 H       -1.884617533     7.201160432     3.311545789
 H       -2.634429196     2.975796977     3.666943676
 H       -0.370755803     2.624811487     4.493536295
 H       -4.393253616     4.384785659     2.857553963
 H       -3.653589677     7.389038474     2.687609087
 H       -6.372701413     4.752104531     2.111071618
 H       -8.577182949     5.330717384     1.258581383
 H       -7.371266099     9.512243566     1.097933554
 H       -5.199631473     8.887196862     1.991713303
 H        1.042746923    14.978840187     9.429601567
 H        0.080628117    13.570214314     8.942375102
 H        1.632922871    13.145693901     6.990875183
 H        2.551943735    14.597642787     7.357679287
 H        3.410706316    13.700810059     9.458777741
 H        2.173848104    12.432554133     9.540019199
 H        2.263357144    -1.029453618    -0.040996987
 H        2.276840458     0.480337257     0.905377016
 H        2.259878397     0.543590523    -0.878007027
 H      -11.458905848     6.843684885    -1.094748198
 H      -10.598472396     5.619941209    -0.129578111
 H       -9.785257403     6.392721516    -1.514944884
 H      -10.498893174     8.979831403     2.567074106
 C      -12.396014646     8.610344267     1.572697635
 C      -11.071641381     6.903944337     2.837566809
 H      -10.798069230     9.572295398    -1.072470285
 C       -9.661205256    10.820967685     0.282544057
 C       -8.703092301     9.537909561    -1.641331164
 H        4.075660220     3.924562765     4.061891200
 C        2.709995809     2.472899569     3.201831639
 C        2.993884564     4.836963934     2.414255132
 H        1.544705428     2.273082470     5.968040770
 C        3.290559604     2.990411588     7.042689254
 C        0.916919654     3.600569096     7.567562364
 H       -3.390274224    14.477724300    -0.969531972
 C       -1.507738214    13.426522996    -1.231862601
 C       -3.678791542    12.793139081    -2.311130461
 H       -5.866186463    11.995826582    -0.157743011
 C       -5.971889919    12.005275337     2.014336327
 C       -6.035281178    14.037621333     0.555085483
 H       -1.789701461    -0.939364308    -1.409683094
 C       -0.316940291    -0.239025979    -2.840537413
 C       -0.199399778    -2.403406883    -1.581469660
 H       -0.147186940    -1.887076823     1.581636679
 C       -0.175975518    -0.130390854     2.862931375
 C       -2.146869026    -1.037854405     1.618921856
 H      -12.419039046     9.542284671     0.993305012
 H      -12.984667866     8.799703692     2.482245787
 H      -12.947304713     7.850446284     1.003149997
 H      -10.094225515     6.533136608     3.177029406
 H      -11.590231395     6.071697473     2.343990077
 H      -11.645214876     7.129784764     3.748115822
 H      -10.444275617    10.926835679     1.044271902
 H       -9.746595232    11.702522318    -0.369293282
 H       -8.690861550    10.908761361     0.790340961
 H       -8.787586015     8.697190498    -2.342568318
 H       -7.684292912     9.519800155    -1.228569374
 H       -8.776605711    10.451427293    -2.248308877
 H        2.882004692     1.731401950     3.992535451
 H        3.360434220     2.183535927     2.363884527
 H        1.674581189     2.350540474     2.849168683
 H        3.259952002     5.877716145     2.644013989
 H        2.012601543     4.848086748     1.917554118
 H        3.718083413     4.493781682     1.662165632
 H        4.033232620     2.658645244     6.306242709
 H        3.236082239     2.197463995     7.802448475
 H        3.696501189     3.875209608     7.553070952
 H       -0.118223878     3.727935626     7.219939242
 H        1.201274454     4.518081200     8.102422357
 H        0.892533051     2.800053700     8.319985555
 H       -0.977598017    13.906201492    -0.397773533
 H       -1.237726991    13.991635409    -2.135160007
 H       -1.082012531    12.420744204    -1.360730814
 H       -4.775723603    12.830383274    -2.302623686
 H       -3.379942631    11.747450110    -2.474578926
 H       -3.359602898    13.344917244    -3.207022977
 H       -5.659548346    10.961971263     2.162298818
 H       -7.070851241    12.008384167     2.036140237
 H       -5.647211717    12.572076306     2.899395014
 H       -5.787603300    14.514474640    -0.401677195
 H       -5.708426724    14.711466853     1.358975467
 H       -7.133223934    14.009214129     0.607419320
 H       -0.668011257     0.801991922    -2.887697598
 H       -0.794884314    -0.762955726    -3.680351542
 H        0.760459822    -0.233901879    -3.052611850
 H       -0.476101750    -2.988994732    -0.695338383
 H        0.885095650    -2.501811751    -1.722304462
 H       -0.667095278    -2.906542727    -2.440249043
 H        0.914136952    -0.046990238     2.961598232
 H       -0.523835252    -0.679330715     3.749430732
 H       -0.599587566     0.882618960     2.939895841
 H       -2.537042687    -1.634174659     0.784722841
 H       -2.685646271    -0.079222594     1.628217254
 H       -2.443325869    -1.566309297     2.536324404

