187   

Si        0.000000000     0.000000000     0.000000000
 C        1.865442371     0.000000000     0.000000000
 C       -0.682680444     1.709327414     0.000000000
 C        0.140153808     2.819977463     0.211067724
 C       -0.393113671     4.109005465     0.207992988
 C       -1.759644584     4.316324128     0.004241569
 C       -2.583624910     3.201857390    -0.203879664
 C       -2.053530241     1.914888285    -0.207841613
 C       -2.362699276     5.644821742    -0.007411204
 C       -1.689842776     6.794189156     0.172089553
 C       -2.297601935     8.120781048     0.159569612
 C       -1.479265425     9.240064964     0.360254678
 C       -2.015792218    10.525380926     0.356427836
 C       -3.385151483    10.722281898     0.141212333
 C       -4.204539587     9.605365525    -0.058673128
 C       -3.666174994     8.319741116    -0.043639763
Si       -4.116779502    12.410208082     0.131677901
 C       -5.576819829    12.519944821    -0.964062316
 C       -5.748097436    11.778190079    -2.066695282
 C       -6.915787938    11.864918837    -2.944366903
 C       -6.979688443    11.034103954    -4.070958193
 C       -8.062937980    11.076094091    -4.934815363
 C       -9.107830880    12.001334025    -4.727784999
 C       -9.041954382    12.839146926    -3.596121424
 C       -7.973829176    12.749344744    -2.714307771
 N      -10.212110147    12.055113337    -5.595509165
 C      -10.060629331    11.476585930    -6.940287705
 C      -10.994817391    13.303546436    -5.594538013
 C       -9.073923205    12.250054482    -7.830192375
 C       -8.827930244    11.486907506    -9.141956776
 N       -7.969281180    12.216719657   -10.088269317
 C       -8.474018756    13.395344302   -10.662251380
 C       -9.862554603    13.639364069   -10.719748464
 C      -10.348122571    14.806506675   -11.288819700
 C       -9.485697468    15.747908136   -11.865949359
 C       -8.111645169    15.489882822   -11.837254710
 C       -7.607073672    14.335644551   -11.255237438
 C       -6.552454081    12.229248182    -9.683879649
 C      -10.051277842    16.963718855   -12.453120622
 C       -9.321301747    17.927420397   -13.029521468
Si       -9.969973741    19.463409596   -13.777524443
 C       -9.262783022    19.677567287   -15.462136586
 C       -8.756380314    18.572905351   -16.158007082
 C       -8.219933205    18.729674610   -17.433582081
 C       -8.186243817    19.988310261   -18.047906068
 C       -8.698849836    21.087488197   -17.352663595
 C       -9.232956613    20.935299543   -16.073901138
 C       -7.613895049    20.100774844   -19.385407552
 C       -7.516711184    21.244772328   -20.083742449
 C       -6.943909096    21.354995090   -21.421326851
 C       -6.431942773    20.255522412   -22.115003628
 C       -5.893159889    20.406063730   -23.392779754
 C       -5.849847128    21.663412555   -24.003068383
 C       -6.362295600    22.768038671   -23.309008843
 C       -6.903787412    22.613864302   -22.035956134
Si       -5.142239856    21.879421078   -25.688685526
 C       -4.221029650    20.356142869   -26.246363048
 C       -6.543660823    22.230956958   -26.927870525
 C       -3.973139256    23.381286412   -25.654829117
 C      -11.867193273    19.426309628   -13.899584696
 C       -9.457051488    20.933163402   -12.682786026
 C       -4.662434145    12.849389145     1.900253864
 C       -2.823125963    13.681694101    -0.442673122
 C       -0.658932890    -0.898085627    -1.543629779
 C       -0.603222580    -0.930399227     1.547412754
 H        1.216031521     2.720394754     0.379241993
 H        0.269824391     4.956999506     0.369808988
 H       -3.650890309     3.341374186    -0.365392682
 H       -2.744931374     1.084979507    -0.379745362
 H       -3.443480823     5.654222336    -0.177845442
 H       -0.609594909     6.786417773     0.343224287
 H       -0.411566664     9.106965724     0.522915265
 H       -1.328953283    11.359459371     0.523640799
 H       -5.283138804     9.699155472    -0.226424103
 H       -4.325489396     7.467166144    -0.196303978
 H       -6.322879162    13.268865971    -0.658424667
 H       -5.013285005    11.030970400    -2.399402362
 H       -6.169284953    10.330762859    -4.268832875
 H       -8.089166134    10.392808340    -5.777981466
 H       -9.832878876    13.553368778    -3.390742706
 H       -7.958738922    13.396263883    -1.835691112
 H      -11.761450898    13.277759573    -6.386493538
 H      -10.376031183    14.204166834    -5.743064920
 H      -11.531424557    13.392415984    -4.632421574
 H       -6.296165841    11.299164908    -9.149840795
 H       -6.293347356    13.081951491    -9.034308065
 H       -5.919268979    12.263324063   -10.589234641
 H      -10.566449345    12.922409795   -10.308756792
 H      -11.424127340    14.983960285   -11.298164220
 H       -7.416018196    16.204123825   -12.282002501
 H       -6.534151913    14.171148721   -11.261207523
 H      -11.145535391    17.010162025   -12.379419949
 H       -8.221968808    17.852557869   -13.081037920
 H       -8.761487020    17.565162221   -15.729323076
 H       -7.825850321    17.861110222   -17.957981345
 H       -8.684776749    22.075877811   -17.807847343
 H       -9.617906114    21.830917475   -15.578777675
 H       -7.251729031    19.158806680   -19.808086329
 H       -7.878873997    22.186909012   -19.662181212
 H       -6.450643685    19.266276620   -21.661244887
 H       -5.508624794    19.508779162   -23.885534713
 H       -6.354036737    23.775091255   -23.735563548
 H       -7.298040667    23.483316254   -21.513367817
 H       -9.747893718    10.412374597    -6.833039706
 H      -11.067155941    11.442278410    -7.417189500
 H       -9.461260837    13.265108787    -8.042344153
 H       -8.117807150    12.410586323    -7.294931159
 H       -8.351384044    10.501135948    -8.933423686
 H       -9.791485091    11.248724638    -9.647941132
 H        2.263139131    -1.030072372    -0.033440534
 H        2.274148844     0.485054882     0.903827358
 H        2.262412299     0.537073168    -0.880485090
 H       -3.763249306    20.509188903   -27.240003682
 H       -4.887661844    19.479023701   -26.319204295
 H       -3.407536201    20.104526685   -25.541872291
 H       -6.046782204    22.290108002   -27.939380933
 C       -7.587466769    21.100052486   -26.974662211
 C       -7.272023104    23.563563381   -26.677677275
 H       -4.611930620    24.263238738   -25.357208094
 C       -2.855656041    23.234616116   -24.606248480
 C       -3.340546934    23.697924365   -27.021662324
 H      -12.240217553    19.193872443   -12.860249192
 C      -12.477648744    20.770804104   -14.334062711
 C      -12.372883474    18.324915521   -14.849228805
 H       -9.901296815    21.851097529   -13.165623751
 C      -10.007474770    20.835770187   -11.249111610
 C       -7.930456804    21.119721423   -12.623627866
 H       -5.086868702    13.893212263     1.846160046
 C       -5.766788249    11.910410842     2.417983508
 C       -3.499623456    12.857616407     2.907759596
 H       -1.978626264    13.629377645     0.303497740
 C       -2.255097328    13.348020065    -1.833795422
 C       -3.356669770    15.125345685    -0.454442582
 H       -1.783771411    -0.891567935    -1.447523816
 C       -0.294859233    -0.169030039    -2.849740595
 C       -0.202696528    -2.364433628    -1.643500748
 H       -0.089769531    -1.934897388     1.515648554
 C       -0.194692110    -0.226666427     2.854601622
 C       -2.122535723    -1.174696499     1.573873538
 H       -7.160682327    20.122201798   -27.232265687
 H       -8.343766290    21.316693525   -27.742674513
 H       -8.134976252    20.984930711   -26.028048157
 H       -6.608699591    24.436799937   -26.717577844
 H       -7.803336127    23.585677353   -25.715807524
 H       -8.036556998    23.724247016   -27.451840374
 H       -3.235730687    23.064684200   -23.588621999
 H       -2.257805990    24.156052447   -24.560528546
 H       -2.154020651    22.422119960   -24.836992726
 H       -4.080656406    23.890243898   -27.809115256
 H       -2.671324505    22.903771059   -27.378295241
 H       -2.726105611    24.607199431   -26.949071041
 H      -12.250902505    21.594924156   -13.645834515
 H      -13.574107835    20.692352064   -14.366557268
 H      -12.164633077    21.077515560   -15.342152110
 H      -12.016746775    17.319401021   -14.586459608
 H      -12.095041712    18.506845993   -15.897662433
 H      -13.470664124    18.280210849   -14.825431601
 H      -11.103359989    20.794160115   -11.205780526
 H       -9.710150129    21.721955172   -10.670409781
 H       -9.619483808    19.965840670   -10.699883894
 H       -7.467750836    21.239149467   -13.613561288
 H       -7.417458287    20.292051497   -12.114845647
 H       -7.683515196    22.029477262   -12.058141491
 H       -6.660384049    11.893419500     1.779125033
 H       -6.104386908    12.236730989     3.411832197
 H       -5.424038877    10.872231011     2.536099541
 H       -2.712187146    13.580205477     2.658558583
 H       -3.025927148    11.872081211     3.023145085
 H       -3.868207963    13.137693452     3.905281691
 H       -1.798375974    12.350182226    -1.891119561
 H       -1.465574965    14.064123175    -2.101503014
 H       -3.011257757    13.410650579    -2.629811429
 H       -3.711762802    15.467227164     0.525996957
 H       -4.171422798    15.273478345    -1.177138832
 H       -2.556028786    15.819078176    -0.749158152
 H       -0.643672413     0.873304611    -2.875993938
 H       -0.766296102    -0.671709656    -3.706211542
 H        0.784426191    -0.161935931    -3.051472150
 H       -0.493664592    -2.970463679    -0.775776962
 H        0.882630896    -2.467399950    -1.774651045
 H       -0.664139436    -2.842021701    -2.520112666
 H        0.889522470    -0.089204607     2.956225334
 H       -0.510529315    -0.826613710     3.720117718
 H       -0.667389500     0.758845404     2.974729266
 H       -2.488692905    -1.740427895     0.707935794
 H       -2.703094453    -0.243895496     1.640293376
 H       -2.391706696    -1.765803329     2.461510037

