187   

Si        0.000000000     0.000000000     0.000000000
 C        1.865424402     0.000000000     0.000000000
 C       -0.674867309     1.712575752     0.000000000
 C        0.136170645     2.807526796    -0.314550516
 C       -0.385625907     4.101041029    -0.311495692
 C       -1.728897867     4.329064907    -0.001658983
 C       -2.541391000     3.230316043     0.309081241
 C       -2.022961575     1.938381717     0.309567912
 C       -2.317846015     5.663992475     0.013963000
 C       -1.650898520     6.797757869    -0.261268731
 C       -2.239859043     8.132720503    -0.245647103
 C       -1.426051834     9.231146540    -0.553739855
 C       -1.943592087    10.523837630    -0.551656985
 C       -3.293450608    10.746237508    -0.253130214
 C       -4.108727282     9.651596933     0.053629097
 C       -3.584255713     8.359719626     0.061679740
Si       -3.990387683    12.448866208    -0.246774546
 C       -5.799554604    12.379124288    -0.484580164
 C       -6.725146997    12.993414972     0.264141648
 C       -8.165360046    12.894937392     0.017306721
 C       -9.055147803    13.575793427     0.858025180
 C      -10.427175544    13.508134192     0.657902296
 C      -10.957856375    12.698780343    -0.364564648
 C      -10.063603930    12.006463028    -1.206224812
 C       -8.694264838    12.125296939    -1.024535040
 N      -12.340830552    12.593532855    -0.610990241
 C      -13.269286967    13.279162229     0.296453509
 C      -12.816633375    11.267093683    -1.043967018
 C      -13.406610246    12.623454597     1.681218115
 C      -14.263308331    13.480772046     2.628250962
 N      -13.587242661    14.662330590     3.182693266
 C      -12.435735914    14.480360032     3.956901859
 C      -12.211288445    13.258463811     4.628579436
 C      -11.071366059    13.078827720     5.394778211
 C      -10.137014089    14.111022764     5.562281556
 C      -10.373229865    15.327950085     4.917593863
 C      -11.500082830    15.520587930     4.129700210
 C      -13.663137524    15.867846683     2.346147654
 C       -8.951272000    13.863750822     6.382867731
 C       -7.991327986    14.769525574     6.615359990
Si       -6.513129747    14.450224946     7.642649688
 C       -6.862995838    13.220508983     8.966169535
 C       -8.124599147    13.203164323     9.576192609
 C       -8.410719330    12.281483348    10.579423704
 C       -7.442248622    11.363591440    11.007419449
 C       -6.182635128    11.388695317    10.402847003
 C       -5.894160401    12.307726527     9.394338899
 C       -7.789997480    10.417197963    12.062134839
 C       -6.958858960     9.485554704    12.559287603
 C       -7.306859288     8.539242942    13.614041731
 C       -8.566171915     8.513790109    14.218805206
 C       -8.856127169     7.591428619    15.224159466
 C       -7.888678637     6.676331595    15.650782347
 C       -6.624687193     6.699797199    15.045709118
 C       -6.339975058     7.617954068    14.038925404
Si       -8.254817881     5.452572155    16.976211222
 C       -9.844031832     5.857759642    17.865127784
 C       -8.408011141     3.715775828    16.212449599
 C       -6.798261704     5.448222453    18.201975525
 C       -5.097854411    13.830424105     6.535152669
 C       -5.980368404    16.087367506     8.452323758
 C       -3.552432800    13.267637879     1.411518731
 C       -3.228778853    13.465790307    -1.662163914
 C       -0.616720871    -0.920736477    -1.547480218
 C       -0.655887289    -0.904607667     1.541366424
 H        1.194130705     2.692142353    -0.565749023
 H        0.267958527     4.936454565    -0.555774559
 H       -3.590526879     3.385804479     0.553593423
 H       -2.704672425     1.121090520     0.561208886
 H       -3.380096408     5.692330637     0.274140582
 H       -0.588748392     6.769363473    -0.521361122
 H       -0.376661477     9.075491219    -0.795735705
 H       -1.260911245    11.342394926    -0.794940193
 H       -5.170294383     9.768834999     0.296708145
 H       -4.236642009     7.523992514     0.307979397
 H       -6.090789812    11.765231752    -1.353929334
 H       -6.474401610    13.616830429     1.132181137
 H       -8.670611639    14.176257694     1.684485241
 H      -11.079413924    14.066975804     1.323842421
 H      -10.441010226    11.392423644    -2.018064930
 H       -8.024504929    11.594634437    -1.703247692
 H      -13.916784358    11.220213392    -1.018727542
 H      -12.419844432    10.444137104    -0.427156628
 H      -12.511465091    11.101503640    -2.093454238
 H      -14.574748090    15.856262104     1.727166003
 H      -12.791850743    15.994771675     1.680115226
 H      -13.733883319    16.755463499     3.003826448
 H      -12.926009566    12.445876287     4.546047111
 H      -10.905937248    12.117429312     5.884119791
 H       -9.661827013    16.147616955     5.029072576
 H      -11.641997498    16.481583161     3.647707340
 H       -8.922689852    12.848423511     6.804581076
 H       -8.036840577    15.776623222     6.175653511
 H       -8.918915654    13.898975951     9.284877612
 H       -9.398540821    12.278050271    11.036391363
 H       -5.412300057    10.686737390    10.716470506
 H       -4.891200820    12.278537642     8.959818372
 H       -8.811045731    10.512176280    12.443347811
 H       -5.937911237     9.390285376    12.178064945
 H       -9.335818727     9.217808867    13.907774894
 H       -9.859178036     7.619434723    15.658732860
 H       -5.829106462     6.008692838    15.338377700
 H       -5.353312286     7.619434152    13.579514111
 H      -12.934698405    14.337638367     0.392369052
 H      -14.262612141    13.323678956    -0.207023456
 H      -13.853764767    11.617758395     1.581335673
 H      -12.402654130    12.451087169     2.122439814
 H      -15.193038930    13.812224499     2.113209168
 H      -14.610367312    12.856398818     3.487286564
 H        2.263322542    -1.029036320     0.055265450
 H        2.261040112     0.555846185     0.869542444
 H        2.275179245     0.466139959    -0.913079582
 H      -10.034634143     5.142730390    18.685281736
 H      -10.713359397     5.823295773    17.185436337
 H       -9.802673029     6.868812756    18.309581714
 H       -8.684994660     3.031494526    17.065809033
 C       -9.522551767     3.633827580    15.153267734
 C       -7.099408540     3.195815944    15.591014883
 H       -5.889520119     5.152298799    17.601128817
 C       -6.531357824     6.839472816    18.804508583
 C       -6.959968604     4.429262899    19.343970932
 H       -4.207469678    13.697698642     7.215581568
 C       -5.418862397    12.469613747     5.892683706
 C       -4.707127803    14.831375153     5.433500973
 H       -5.771813189    16.801663557     7.604580646
 C       -7.092691008    16.694653090     9.326021435
 C       -4.698938767    15.956391059     9.293848839
 H       -4.109853897    14.248328982     1.435500985
 C       -4.017797940    12.416088946     2.605452619
 C       -2.052113562    13.569659273     1.573155522
 H       -2.119578917    13.501850591    -1.458958088
 C       -3.438326623    12.808948451    -3.038250966
 C       -3.751118648    14.912443506    -1.711029659
 H       -0.127495124    -1.936877785    -1.513472231
 C       -2.141854540    -1.126919655    -1.573488055
 C       -0.190456831    -0.229004831    -2.855369738
 H       -1.780544536    -0.906799743     1.443909780
 C       -0.189445596    -2.368024063     1.639196998
 C       -0.298320329    -0.175421774     2.849179248
 H      -10.512380882     3.910445653    15.538457632
 H       -9.614645651     2.602905471    14.782455365
 H       -9.321370945     4.260440689    14.272355826
 H       -6.264347647     3.154712521    16.301685022
 H       -6.775760377     3.787220364    14.722836535
 H       -7.240523266     2.168294746    15.225118655
 H       -6.349088100     7.613232880    18.044881504
 H       -5.631510839     6.810993626    19.435410170
 H       -7.348408618     7.193103432    19.447206003
 H       -7.082550654     3.396975164    18.991596036
 H       -7.804781250     4.659117468    20.006691070
 H       -6.062128119     4.432198981    19.979172595
 H       -5.720388862    11.699785064     6.616849746
 H       -4.530034449    12.071778554     5.382248881
 H       -6.213855626    12.534501334     5.134808211
 H       -4.432324373    15.821345001     5.818916375
 H       -5.500038135    14.971318801     4.685008698
 H       -3.824962814    14.464970272     4.887599004
 H       -8.029528912    16.870813418     8.780078401
 H       -6.774600857    17.671683488     9.716491878
 H       -7.331046837    16.076401598    10.203617161
 H       -3.830014062    15.619128271     8.714562404
 H       -4.815989564    15.275080411    10.148878328
 H       -4.424993567    16.933603654     9.717199393
 H       -5.098955317    12.216616745     2.607500829
 H       -3.798961804    12.940090264     3.547911937
 H       -3.503984928    11.445984512     2.666833492
 H       -1.659533071    14.248744680     0.805811016
 H       -1.430474851    12.663250645     1.569872874
 H       -1.869636642    14.061412400     2.539612032
 H       -3.052923977    11.781135907    -3.093823025
 H       -2.905491860    13.378481941    -3.812892667
 H       -4.493258014    12.785255877    -3.344544108
 H       -3.557247881    15.476386928    -0.789562671
 H       -4.829911172    14.970925925    -1.915888754
 H       -3.254194399    15.465296224    -2.520840605
 H       -2.520046237    -1.693344923    -0.713137180
 H       -2.427662212    -1.700750880    -2.467105862
 H       -2.699452095    -0.181141947    -1.626912407
 H        0.896661450    -0.115921809    -2.955305836
 H       -0.641442797     0.766267540    -2.978419534
 H       -0.517910683    -0.823722520    -3.720138925
 H       -0.469857429    -2.973184166     0.767471515
 H       -0.653513891    -2.852052459     2.510887213
 H        0.895689430    -2.463283375     1.777527594
 H       -0.651155761     0.865608073     2.875818972
 H        0.780511976    -0.163981213     3.053387213
 H       -0.769660490    -0.681143335     3.703910118

