187   

Si        0.000000000     0.000000000     0.000000000
 C        1.865335948     0.000000000     0.000000000
 C       -0.671180225     1.714305826     0.000000000
 C        0.128400723     2.797647863    -0.378209137
 C       -0.386179156     4.093773375    -0.376007236
 C       -1.710905401     4.336432112    -0.003355400
 C       -2.512322429     3.249160055     0.369847693
 C       -2.001337352     1.953999746     0.369972876
 C       -2.290232856     5.675694071     0.013350673
 C       -1.629008310     6.797104459    -0.320030021
 C       -2.202419973     8.138590074    -0.305380363
 C       -3.525864452     8.390320851     0.065807035
 C       -4.031453655     9.690279652     0.064829820
 C       -3.226309392    10.765472918    -0.323422692
 C       -1.899235667    10.515673891    -0.698776191
 C       -1.394026358     9.218780554    -0.684412989
Si       -3.858397825    12.493239280    -0.337354281
 C       -3.123144556    13.467883964    -1.698815731
 C       -2.729012794    12.942443636    -2.866765690
 C       -2.139875460    13.714622480    -3.961335005
 C       -1.767550451    13.045977729    -5.136694955
 C       -1.205799492    13.728133020    -6.203014413
 C       -0.942758266    15.112552021    -6.107995761
 C       -1.313075963    15.783690406    -4.926939124
 C       -1.921548051    15.092339335    -3.886635162
 N       -0.372678815    15.792443432    -7.197031706
 C        0.540697052    15.035621010    -8.071767950
 C        0.026304926    17.191049332    -6.980718328
 C        1.738315028    14.383140912    -7.360389635
 C        2.923841427    15.336532822    -7.133110162
 N        3.823587341    15.506190246    -8.288406288
 C        4.397979770    14.348190624    -8.838830547
 C        4.695762315    13.247593915    -8.005415588
 C        5.262083611    12.099769553    -8.534471286
 C        5.601312834    12.016533303    -9.892770972
 C        5.335020238    13.117910672   -10.709842002
 C        4.749773204    14.270122322   -10.199937541
 C        3.402017899    16.556436630    -9.227255585
 C        6.197143386    10.778876435   -10.397656888
 C        6.561261017    10.583128628   -11.672248854
Si        7.305601302     9.036245897   -12.301697998
 C        8.287664503     8.165895167   -11.012518685
 C        8.958020797     8.904807751   -10.028625579
 C        9.704714397     8.258517981    -9.047216504
 C        9.811662378     6.861490124    -9.031137590
 C        9.149178083     6.127871745   -10.019019802
 C        8.396954832     6.771622553   -11.000982639
 C       10.605560213     6.229755406    -7.982398046
 C       10.784471064     4.904291281    -7.851850142
 C       11.578135891     4.271667100    -6.803514517
 C       12.241425382     5.002884018    -5.814726088
 C       12.989647443     4.356456050    -4.830888231
 C       13.096255514     2.962212145    -4.819299083
 C       12.432395707     2.226616714    -5.810467254
 C       11.681343925     2.874054458    -6.787428972
Si       14.079811646     2.094074212    -3.527836567
 C       15.172955585     3.277091972    -2.586920927
 C       12.900308743     1.241449381    -2.301150882
 C       15.135900281     0.757856383    -4.377997179
 C        5.916374050     7.904773458   -12.941983227
 C        8.455405352     9.472341775   -13.753184530
 C       -5.751546227    12.503705834    -0.524052335
 C       -3.403146648    13.324338695     1.312202797
 C       -0.621800653    -0.914310613    -1.549089860
 C       -0.654823274    -0.910328124     1.538355806
 H        1.172008612     2.671112922    -0.679588997
 H        0.258873536     4.919895839    -0.670069381
 H       -3.547053241     3.415807880     0.663171609
 H       -2.674107751     1.146091812     0.670877399
 H       -3.337567004     5.718355039     0.325621035
 H       -0.581208746     6.752093822    -0.632236563
 H       -4.174967551     7.569155622     0.363575422
 H       -5.071922918     9.825367634     0.372193563
 H       -1.223806703    11.319663086    -1.010862787
 H       -0.359801806     9.044369119    -0.975280054
 H       -3.039266955    14.546504869    -1.499772570
 H       -2.812130596    11.869262425    -3.092540398
 H       -1.934990189    11.970867189    -5.221092822
 H       -0.966774675    13.185907151    -7.113617578
 H       -1.137964055    16.847963039    -4.813219279
 H       -2.215352542    15.640459755    -2.990206499
 H        0.463751006    17.608174736    -7.902696658
 H        0.748171930    17.322577343    -6.157983981
 H       -0.876113752    17.791572821    -6.758175626
 H        2.957437596    17.402023152    -8.677110263
 H        2.678537286    16.209439294    -9.983184574
 H        4.294787074    16.951399423    -9.748291045
 H        4.478220088    13.291265930    -6.941888672
 H        5.460891331    11.252032094    -7.876632027
 H        5.589389761    13.081096347   -11.770195667
 H        4.560861725    15.099988758   -10.872256674
 H        6.327083389    10.013376063    -9.619012002
 H        6.412050467    11.362232117   -12.434773677
 H        8.914886479     9.998905625    -9.995301056
 H       10.212850170     8.848680259    -8.286703931
 H        9.216482320     5.041697357   -10.030037750
 H        7.902362712     6.143888779   -11.747089893
 H       11.068163101     6.925937102    -7.276512381
 H       10.322140624     4.208305032    -8.557914500
 H       12.178537074     6.089491583    -5.804199837
 H       13.485014385     4.982078411    -4.083130034
 H       12.480649348     1.134781130    -5.852041596
 H       11.171816078     2.285533045    -7.547955112
 H       -0.065160123    14.248241975    -8.582693022
 H        0.889809271    15.706400788    -8.886883970
 H        1.413064364    13.968089356    -6.384058436
 H        2.073295540    13.502152193    -7.946078039
 H        2.562148048    16.338182087    -6.813754973
 H        3.544145493    14.965288411    -6.281436861
 H        2.263350554    -1.029556481     0.043385668
 H        2.260252527     0.545983321     0.876166610
 H        2.275965584     0.476822039    -0.907174188
 H       15.789209475     2.742643772    -1.841990607
 H       14.583064522     4.037706176    -2.046105952
 H       15.862445714     3.806706428    -3.269292925
 H       13.562462850     0.778180576    -1.513561589
 C       11.953081092     2.235378266    -1.604378531
 C       12.058201245     0.119170252    -2.934047718
 H       14.404854297     0.056778902    -4.876412118
 C       16.051826532     1.337577656    -5.471051288
 C       15.986326526    -0.068988096    -3.397219986
 H        6.426147063     6.995853924   -13.374140986
 C        4.978179671     7.437739056   -11.814674498
 C        5.074040518     8.550216614   -14.056879211
 H        7.809466308     9.991940343   -14.518202628
 C        9.576697936    10.441201362   -13.336591083
 C        9.084248531     8.235954797   -14.418859658
 H       -6.156344300    11.927770299     0.357570015
 C       -6.357170266    13.918205000    -0.484934784
 C       -6.215116902    11.798768256    -1.811465315
 H       -3.817440367    14.372193876     1.258478420
 C       -4.026412009    12.625329815     2.532896773
 C       -1.880369884    13.422169568     1.515140424
 H       -0.144672703    -1.936073405    -1.514237802
 C       -2.149363995    -1.101896803    -1.576819402
 C       -0.185048358    -0.227732930    -2.856169630
 H       -1.779317221    -0.916644443     1.439563111
 C       -0.183300164    -2.372367985     1.633332461
 C       -0.301429354    -0.183341515     2.848567189
 H       12.478323777     3.027152742    -1.054861268
 H       11.332028279     1.709005462    -0.865431086
 H       11.255559871     2.720887802    -2.302052352
 H       12.662802945    -0.684256138    -3.373399943
 H       11.369838395     0.486487770    -3.708183868
 H       11.429055130    -0.355739806    -2.167047568
 H       15.505413915     1.899387965    -6.242185945
 H       16.573706011     0.524689440    -5.995828397
 H       16.832230943     1.998573264    -5.071204185
 H       15.391697332    -0.575180885    -2.625887062
 H       16.755577664     0.527517904    -2.889046209
 H       16.521687419    -0.860969840    -3.941016940
 H        5.498716379     6.909785005   -11.003526899
 H        4.232206038     6.734619126   -12.210765842
 H        4.412469097     8.264054836   -11.360156913
 H        5.663463174     8.844174097   -14.934572988
 H        4.517715645     9.433953818   -13.714293411
 H        4.320909996     7.835650710   -14.419214416
 H        9.204454743    11.378407079   -12.900705797
 H       10.174960842    10.725095235   -14.213919676
 H       10.279292671     9.996666863   -12.616872597
 H        8.343827824     7.537301669   -14.828541734
 H        9.738629995     7.670342345   -13.739985488
 H        9.715446156     8.544535497   -15.264854567
 H       -6.133539977    14.463524499     0.440675900
 H       -7.453381666    13.858656169    -0.547899185
 H       -6.035542451    14.543587236    -1.329614004
 H       -5.871931976    10.757773058    -1.888386414
 H       -5.890985798    12.320311705    -2.724013190
 H       -7.312938467    11.764883111    -1.849328739
 H       -5.123246091    12.599365329     2.507528998
 H       -3.753481701    13.161519724     3.453404044
 H       -3.670265604    11.593306761     2.663560075
 H       -1.366015332    13.960134044     0.707227054
 H       -1.399654954    12.438520367     1.617917337
 H       -1.657887961    13.970409305     2.441537602
 H       -2.533605395    -1.673780849    -0.722790009
 H       -2.442387118    -1.661890483    -2.476864616
 H       -2.696116342    -0.149160783    -1.618571494
 H        0.903481588    -0.126385055    -2.953576299
 H       -0.625351997     0.772089092    -2.980880300
 H       -0.516691491    -0.819497183    -3.721400975
 H       -0.460237893    -2.976502227     0.759798452
 H       -0.647047944    -2.860056560     2.503164008
 H        0.901967062    -2.464091335     1.773110891
 H       -0.655881827     0.857022780     2.876960587
 H        0.777020957    -0.170485425     3.054944071
 H       -0.773465499    -0.692019425     3.701142746

