187   

Si        0.000000000     0.000000000     0.000000000
 C        1.864731801     0.000000000     0.000000000
 C       -0.667345901     1.715979102     0.000000000
 C        0.037260505     2.742757154     0.638560393
 C       -0.458643780     4.045645177     0.644801900
 C       -1.667773864     4.351288228     0.014615589
 C       -2.375206116     3.321549279    -0.618920382
 C       -1.885119171     2.018358546    -0.621910663
 C       -2.225524882     5.699111693    -0.004789927
 C       -1.653812974     6.772515260     0.566960976
 C       -2.220408033     8.116175029     0.541507520
 C       -1.525700657     9.153863127     1.176322796
 C       -2.030308568    10.452242753     1.176520037
 C       -3.259306566    10.730951555     0.569504557
 C       -3.961128560     9.694064314    -0.056744738
 C       -3.442306228     8.401366498    -0.075194245
Si       -3.972489100    12.423780787     0.539820488
 C       -5.792748173    12.277799093     0.630643302
 C       -6.653026165    12.887709714    -0.193642674
 C       -8.109500959    12.758275159    -0.104840790
 C       -8.896161570    13.454059527    -1.034950810
 C      -10.279338073    13.369028656    -0.999017176
 C      -10.905148530    12.587879010    -0.014138874
 C      -10.128870773    11.898350240     0.923432858
 C       -8.741121107    11.989442586     0.876078314
 N      -12.339432736    12.561105475    -0.056955964
 C      -12.834787826    11.558643514    -1.028555597
 C      -12.980310836    12.448784921     1.265651684
 C      -12.628471768    10.093664189    -0.599386907
 C      -12.118775796     9.183136139    -1.732040736
 N      -10.659083447     9.137944500    -1.917427546
 C       -9.856941379     8.693366985    -0.853928817
 C      -10.413959182     8.054900605     0.273276672
 C       -9.599417610     7.625451064     1.309880160
 C       -8.204267888     7.707868167     1.220777655
 C       -7.648371365     8.303795944     0.084247310
 C       -8.451689012     8.801933196    -0.931264486
 C      -10.120136497    10.249352482    -2.719159037
 C       -7.405101937     7.236716886     2.351352548
 C       -6.066726884     7.254316699     2.405982965
Si       -5.124553931     6.648508262     3.853635530
 C       -6.100975361     6.884052608     5.398570951
 C       -6.888453093     8.036202483     5.536510471
 C       -7.638315694     8.245739960     6.689985996
 C       -7.612896945     7.317450260     7.739567243
 C       -6.820875172     6.174485205     7.603262064
 C       -6.070508305     5.960512381     6.447036063
 C       -8.416053210     7.580817624     8.929004038
 C       -8.482826722     6.773442305    10.001182737
 C       -9.285692609     7.036126151    11.190879964
 C      -10.078304893     8.178446196    11.329043957
 C      -10.830429517     8.389528666    12.484630195
 C      -10.801307819     7.462804650    13.531351047
 C      -10.006983813     6.316083149    13.395482086
 C       -9.261625311     6.105780429    12.238817261
Si      -11.787648562     7.725974609    15.063007215
 C      -12.449404186     9.467280072    15.163229202
 C      -13.254482881     6.513075484    15.089589352
 C      -10.671526142     7.358676660    16.560737280
 C       -4.764632353     4.789157216     3.651956038
 C       -3.485155991     7.597111751     3.939498021
 C       -3.371176725    13.444376334     2.026241859
 C       -3.417305375    13.283017019    -1.062185958
 C       -0.648272685    -0.935565175    -1.525534166
 C       -0.639173632    -0.886025020     1.558921068
 H        0.990134305     2.564209022     1.144671436
 H        0.109104253     4.826812982     1.147056068
 H       -3.320791885     3.538231910    -1.113386493
 H       -2.483533375     1.255441034    -1.127538039
 H       -3.177191561     5.792339063    -0.538403950
 H       -0.702440771     6.683527102     1.097962415
 H       -0.577454903     8.948581013     1.668685576
 H       -1.439692378    11.225782360     1.673614315
 H       -4.926815976     9.861586815    -0.547313804
 H       -4.000375906     7.610452062    -0.574349072
 H       -6.146309864    11.626125340     1.448526094
 H       -6.329982284    13.543501970    -1.012679201
 H       -8.418183469    14.070857410    -1.795350579
 H      -10.891339300    13.916032907    -1.714337856
 H      -10.599169356    11.286874262     1.689555250
 H       -8.148035286    11.437548246     1.608207236
 H      -14.059157568    12.648776705     1.146111939
 H      -12.571858403    13.229667147     1.930936386
 H      -12.861199970    11.472909547     1.759555560
 H      -10.869648728    10.610694563    -3.439988540
 H       -9.257943746     9.885165292    -3.307169967
 H       -9.791284299    11.105239898    -2.101698240
 H      -11.484658356     7.899566828     0.351866615
 H      -10.059272849     7.184418040     2.195520649
 H       -6.563893711     8.389615966    -0.005272384
 H       -7.984619924     9.275387569    -1.789369909
 H       -8.023325292     6.859537331     3.179832756
 H       -5.456776438     7.627112439     1.569440576
 H       -6.943891772     8.797309527     4.749793386
 H       -8.248672125     9.142406229     6.776286063
 H       -6.782143256     5.438289323     8.403667076
 H       -5.468763903     5.048814268     6.400669973
 H       -8.986330009     8.513810428     8.898414313
 H       -7.912300793     5.840587183    10.031231635
 H      -10.115383032     8.916948834    10.530341706
 H      -11.431845577     9.301362324    12.534169859
 H       -9.944562855     5.557655381    14.180961012
 H       -8.652188073     5.208376420    12.150836580
 H      -13.915623169    11.765912651    -1.190133942
 H      -12.333241934    11.759265856    -2.001133481
 H      -11.912772236    10.054235960     0.248617074
 H      -13.574583309     9.685576794    -0.200044528
 H      -12.455403351     8.133758544    -1.545362548
 H      -12.584942540     9.472384027    -2.700502525
 H        2.262883064    -1.029369297    -0.046541189
 H        2.277610551     0.475970468     0.906286359
 H        2.257897907     0.548884392    -0.875394510
 H      -13.003978527     9.628827976    16.104781717
 H      -13.137325289     9.691974235    14.329460288
 H      -11.627670891    10.205681328    15.131435659
 H      -13.843293181     6.767564636    16.017893651
 C      -14.183220237     6.684519817    13.873464806
 C      -12.833583779     5.035533642    15.183215559
 H      -10.352240979     6.281382088    16.451437603
 C       -9.400365696     8.226913828    16.575179525
 C      -11.392001351     7.501161008    17.913255648
 H       -4.230503641     4.478422759     4.596390120
 C       -6.054146915     3.956389422     3.530370220
 C       -3.849681356     4.456655576     2.464999455
 H       -2.993398729     7.443852780     2.931491652
 C       -3.696785971     9.108271385     4.136932460
 C       -2.523255770     7.076264391     5.020167636
 H       -2.245220402    13.465697507     1.954856653
 C       -3.875978898    14.898127538     1.997308652
 C       -3.752231352    12.811298725     3.375801947
 H       -3.956479097    14.273810333    -1.089673352
 C       -1.904480786    13.563176828    -1.101854346
 C       -3.806616253    12.489839185    -2.323287316
 H       -1.774369248    -0.916053642    -1.447569318
 C       -0.253451114    -0.254932992    -2.848763173
 C       -0.208383228    -2.410033204    -1.572104205
 H       -0.187591075    -1.919306925     1.534914013
 C       -0.187131527    -0.196955945     2.859514081
 C       -2.171338501    -1.032621308     1.584747456
 H      -14.598461851     7.696226522    13.780538991
 H      -15.044102116     6.005992683    13.958167135
 H      -13.690385359     6.438482524    12.921787871
 H      -12.230676278     4.809076931    16.071641858
 H      -12.275449749     4.694596253    14.299800651
 H      -13.725196522     4.394842860    15.246909207
 H       -8.802446599     8.135719202    15.656918674
 H       -8.743032253     7.919713236    17.401027773
 H       -9.610842207     9.293694305    16.727937727
 H      -12.273681096     6.854044196    18.006450932
 H      -11.709331155     8.531170742    18.123202263
 H      -10.714163817     7.216220203    18.731109795
 H       -6.741804282     4.085828986     4.376781573
 H       -5.809080409     2.885825885     3.492425169
 H       -6.616870057     4.177336574     2.611703965
 H       -2.874982161     4.962150272     2.508083226
 H       -4.304061569     4.694809065     1.493412354
 H       -3.629585159     3.379372722     2.443445586
 H       -4.324783741     9.560620105     3.354982962
 H       -2.729135940     9.628795679     4.091225912
 H       -4.139351710     9.356248966     5.110994529
 H       -2.250093707     6.021570175     4.884876351
 H       -2.919638813     7.192289508     6.038248060
 H       -1.582328006     7.644031245     4.990230655
 H       -3.567570351    15.449943215     1.100163119
 H       -3.468952905    15.454860790     2.853762882
 H       -4.970129137    14.973488960     2.075345916
 H       -3.385004906    11.781953023     3.494486733
 H       -4.837078486    12.800488574     3.552649242
 H       -3.313084674    13.390039013     4.200960612
 H       -1.560609651    14.216226371    -0.289391248
 H       -1.641237306    14.075873153    -2.038584801
 H       -1.297676834    12.646960222    -1.075488854
 H       -4.881920567    12.276602898    -2.395034534
 H       -3.274214377    11.530868805    -2.403062636
 H       -3.543855582    13.061704110    -3.224278426
 H       -0.571907862     0.795237305    -2.911376101
 H       -0.728691631    -0.771259923    -3.695020402
 H        0.827963586    -0.282972406    -3.038423354
 H       -0.525396636    -2.986149646    -0.693144521
 H        0.877878059    -2.530773079    -1.677444091
 H       -0.658078032    -2.908086852    -2.443473067
 H        0.903524432    -0.127332789     2.959553092
 H       -0.538588543    -0.769453431     3.730042825
 H       -0.599354755     0.816253056     2.971638097
 H       -2.568139605    -1.605141450     0.736716435
 H       -2.693326325    -0.065327796     1.610396523
 H       -2.482154697    -1.573103439     2.490654402

