187   

Si        0.000000000     0.000000000     0.000000000
 C        1.864370318     0.000000000     0.000000000
 C       -0.672836578     1.712967568     0.000000000
 C        0.093053926     2.783405350     0.473383652
 C       -0.421911342     4.079507367     0.471041640
 C       -1.711648354     4.331438503    -0.001273673
 C       -2.479433612     3.257749002    -0.472033383
 C       -1.968627133     1.963450049    -0.470043772
 C       -2.297824049     5.664841349    -0.026049722
 C       -1.693553223     6.790972070     0.389064103
 C       -2.321395078     8.108111501     0.345227937
 C       -1.611642086     9.225021226     0.800743816
 C       -2.185640662    10.495633508     0.771015832
 C       -3.498686142    10.667324992     0.323272222
 C       -4.217927109     9.547047085    -0.114595081
 C       -3.634413443     8.284622761    -0.103755086
Si       -4.331149316    12.308467157     0.252164297
 C       -5.438249672    12.332365410    -1.206323715
 C       -5.172031555    11.623329360    -2.311603656
 C       -6.010877254    11.596825652    -3.509051624
 C       -5.597682810    10.802540886    -4.590624757
 C       -6.348414986    10.736149977    -5.750631718
 C       -7.574765031    11.428509004    -5.839815789
 C       -7.993222562    12.217766330    -4.759322237
 C       -7.203773914    12.312104830    -3.617046273
 N       -8.297682624    11.320088216    -7.057163353
 C       -8.647829486     9.927833004    -7.419255127
 C       -9.424343688    12.253018041    -7.225229248
 C       -9.645837483     9.204014372    -6.490221969
 C       -9.092587902     8.810086855    -5.110087772
 N       -8.562978781     7.420620166    -5.062062500
 C       -8.176004745     7.046688206    -3.739808144
 C       -9.177361684     7.029551649    -2.749021646
 C       -8.865509809     6.675349839    -1.446602995
 C       -7.566203122     6.275698972    -1.095070255
 C       -6.581757095     6.273967506    -2.084882012
 C       -6.874622379     6.657983205    -3.390493020
 C       -7.553359871     7.134701998    -6.095992901
 C       -7.300028934     5.913460610     0.299149593
 C       -6.110371089     5.515950347     0.769975846
Si       -5.808606708     5.068675699     2.523228597
 C       -7.346562396     4.384246934     3.269481837
 C       -8.130411935     3.501296888     2.512872909
 C       -9.299589414     2.962929281     3.041754524
 C       -9.713099437     3.285370845     4.341616040
 C       -8.928357720     4.161913292     5.095170957
 C       -7.757643951     4.705313371     4.565818915
 C      -10.946262100     2.695596268     4.851826476
 C      -11.455212812     2.922774681     6.074722640
 C      -12.688639772     2.332384918     6.583990970
 C      -13.472737106     1.455913681     5.829659671
 C      -14.645335890     0.914388696     6.356296043
 C      -15.056939474     1.235034646     7.653611963
 C      -14.272049274     2.113909595     8.412616600
 C      -13.104769888     2.656235436     7.882518254
Si      -16.601579635     0.529141447     8.363558845
 C      -17.252573286    -0.879030422     7.327588173
 C      -16.225390030    -0.073060234    10.129791235
 C      -17.934435457     1.884923345     8.457111514
 C       -4.451789380     3.735959363     2.544006784
 C       -5.226092248     6.596933090     3.497808275
 C       -5.383002766    12.522150715     1.821657742
 C       -3.063850492    13.716810550     0.147648527
 C       -0.655444725    -0.926940779    -1.527389417
 C       -0.643856399    -0.880246231     1.560946271
 H        1.109352556     2.645748612     0.852431100
 H        0.193138173     4.896600519     0.842985075
 H       -3.488426418     3.434364511    -0.843412928
 H       -2.612970330     1.164842056    -0.848213103
 H       -3.311672433     5.703704021    -0.440140269
 H       -0.679251485     6.771149791     0.792987412
 H       -0.595230680     9.107186302     1.169797497
 H       -1.578971588    11.334448024     1.120432672
 H       -5.255086862     9.616520840    -0.466787024
 H       -4.219897893     7.432605292    -0.448994884
 H       -6.326548090    12.972936489    -1.126953254
 H       -4.278597412    10.985853850    -2.406526253
 H       -4.664508733    10.241166108    -4.522792975
 H       -5.992651526    10.158759914    -6.600375396
 H       -8.931955448    12.761173934    -4.798890909
 H       -7.538494691    12.941822870    -2.791962726
 H       -9.796344954    12.178768606    -8.261770873
 H       -9.062039707    13.287474023    -7.086703350
 H      -10.267738491    12.078139426    -6.539484610
 H       -8.028563759     7.212861528    -7.088558586
 H       -7.212634736     6.088653008    -5.997531775
 H       -6.676575598     7.801043994    -6.065871964
 H      -10.199694216     7.292864844    -3.012120496
 H       -9.648692132     6.691228058    -0.688039051
 H       -5.562857728     5.972930363    -1.841070468
 H       -6.074956905     6.671946620    -4.125338911
 H       -8.189651097     5.998296892     0.940064804
 H       -5.233033055     5.434710873     0.112853243
 H       -7.857138921     3.213942095     1.491681172
 H       -9.897110690     2.283366954     2.437347499
 H       -9.226544847     4.429400036     6.106987699
 H       -7.188392742     5.386631196     5.204106777
 H      -11.457303634     2.027664181     4.152055105
 H      -10.944588997     3.590313885     6.774911653
 H      -13.172897285     1.187453876     4.818319386
 H      -15.216815834     0.235000145     5.717999191
 H      -14.543796890     2.400050130     9.432602077
 H      -12.509060755     3.337956656     8.486654322
 H       -9.065068439     9.952967885    -8.452475392
 H       -7.700553999     9.348920083    -7.491417368
 H      -10.536215641     9.845591814    -6.342843695
 H      -10.026403408     8.295845597    -7.001761340
 H       -8.328118306     9.535372786    -4.758616796
 H       -9.928144438     8.866961670    -4.372169593
 H        2.263175378    -1.028940374    -0.051385872
 H        2.276353564     0.470709148     0.909589223
 H        2.257858495     0.552772383    -0.872601575
 H      -18.159073746    -1.319591669     7.779714970
 H      -16.501728106    -1.684977680     7.237749175
 H      -17.516745564    -0.548952152     6.307691183
 H      -15.880876826     0.838070937    10.700425562
 C      -17.453794614    -0.647971318    10.857167624
 C      -15.088289661    -1.110051794    10.168858673
 H      -18.862806413     1.373046046     8.843503873
 C      -17.584500772     3.029779485     9.424590515
 C      -18.260420987     2.487251222     7.078067782
 H       -3.559245403     4.202026272     2.027663031
 C       -4.017531208     3.313210173     3.957157418
 C       -4.852592704     2.475084246     1.756525977
 H       -5.414595378     6.356410149     4.584482723
 C       -3.730262016     6.915762175     3.349702462
 C       -6.035332041     7.856046352     3.135793329
 H       -5.824410403    13.558415084     1.764832531
 C       -6.542408809    11.511892694     1.889802717
 C       -4.557344995    12.421822799     3.116345466
 H       -2.435192313    13.641372604     1.081867959
 C       -2.131327019    13.576824070    -1.069332901
 C       -3.709021765    15.114204762     0.122020489
 H       -1.780172968    -0.933151221    -1.429765579
 C       -0.300518051    -0.216645432    -2.846273033
 C       -0.184052440    -2.390163290    -1.603869123
 H       -0.174980031    -1.905868067     1.553739064
 C       -0.218301116    -0.167085084     2.857615260
 C       -2.173592619    -1.052428791     1.574521236
 H      -18.286924869     0.062731354    10.932316116
 H      -17.186287373    -0.917734686    11.889254971
 H      -17.837398005    -1.564944292    10.390623737
 H      -14.155680858    -0.748548327     9.712206537
 H      -15.352293590    -2.055528623     9.676933579
 H      -14.842522923    -1.361326769    11.210470584
 H      -17.414831264     2.693400048    10.455188392
 H      -18.415100877     3.749236452     9.470236673
 H      -16.701973073     3.602352502     9.106036638
 H      -18.599638323     1.743342127     6.345848633
 H      -17.409867782     3.025616985     6.635494290
 H      -19.074350838     3.220612905     7.170076942
 H       -3.655372136     4.146720459     4.572499961
 H       -3.186230300     2.595627119     3.892204190
 H       -4.817409017     2.809633785     4.517420523
 H       -5.181732903     2.682067137     0.729849684
 H       -5.646976494     1.900031340     2.251947855
 H       -3.986782499     1.800651545     1.671101344
 H       -3.071243851     6.094762175     3.657937848
 H       -3.463467055     7.778185632     3.976517745
 H       -3.454132365     7.192831608     2.322078841
 H       -7.119277352     7.733519543     3.259155196
 H       -5.851731924     8.190824886     2.102816011
 H       -5.741563339     8.692307874     3.785666727
 H       -7.212977924    11.555790700     1.020548606
 H       -7.167240406    11.713738555     2.771121596
 H       -6.197947424    10.471478071     1.989135294
 H       -3.754847708    13.167374422     3.181848588
 H       -4.104138760    11.430024203     3.258276405
 H       -5.204552865    12.590771097     3.989101365
 H       -1.586267251    12.623148555    -1.095693873
 H       -1.367950715    14.367343443    -1.053499942
 H       -2.661552971    13.679494148    -2.027390591
 H       -4.332950862    15.323495874     1.000173591
 H       -4.321967188    15.285218898    -0.774008503
 H       -2.927852935    15.888173714     0.110862068
 H       -0.654297652     0.823293118    -2.888603768
 H       -0.771247351    -0.736123833    -3.693087310
 H        0.778216788    -0.206915651    -3.051586244
 H       -0.464579951    -2.984013432    -0.724286230
 H        0.901575719    -2.484447120    -1.738912162
 H       -0.644922857    -2.887893345    -2.469562755
 H        0.869590625    -0.072867149     2.967100141
 H       -0.566215735    -0.736642829     3.731564946
 H       -0.651945952     0.838845602     2.953668648
 H       -2.554077825    -1.636934525     0.727335565
 H       -2.711768725    -0.093764513     1.591679844
 H       -2.482692975    -1.592437674     2.481620135

