187   

Si        0.000000000     0.000000000     0.000000000
 C        1.864791153     0.000000000     0.000000000
 C       -0.692110427     1.704710824     0.000000000
 C        0.099273857     2.818202019     0.297605423
 C       -0.449734169     4.100690754     0.290827598
 C       -1.797627896     4.297392413    -0.019434591
 C       -2.589802808     3.180241228    -0.316553578
 C       -2.046874298     1.899314568    -0.303462724
 C       -2.421454679     5.614946194    -0.041032670
 C       -1.789557044     6.769445477     0.228424506
 C       -2.428534659     8.080405730     0.202463215
 C       -1.659597538     9.212054853     0.503180909
 C       -2.230408013    10.481764051     0.489796938
 C       -3.591228334    10.643323932     0.202842294
 C       -4.363101355     9.515221338    -0.093639989
 C       -3.782386546     8.248021991    -0.102548155
Si       -4.359422463    12.313453496     0.181391010
 C       -6.157609411    12.170669236     0.478726414
 C       -7.124820085    12.730857749    -0.259248717
 C       -8.555769174    12.589760100     0.016090103
 C       -9.473972965    13.226954791    -0.833051766
 C      -10.837267064    13.127642198    -0.620227910
 C      -11.341988542    12.364898319     0.459553234
 C      -10.420020158    11.737789818     1.319910840
 C       -9.053238031    11.871178946     1.104865010
 N      -12.723513845    12.286262588     0.644882326
 C      -13.603506339    12.265972531    -0.535737608
 C      -13.264723581    11.542891237     1.788992141
 C      -13.243527901    11.195580435    -1.584715307
 C      -13.588063915     9.762360722    -1.130629034
 N      -12.476344730     8.783921132    -1.031450295
 C      -11.427557146     8.981206202    -1.993009569
 C      -11.597111493     8.346038707    -3.232373193
 C      -10.629250570     8.485743464    -4.217670218
 C       -9.493557678     9.278507884    -4.001688342
 C       -9.328621412     9.898459737    -2.759112188
 C      -10.272468637     9.733750172    -1.753027150
 C      -11.934735044     8.643932168     0.337393242
 C       -8.496894973     9.397579216    -5.070400229
 C       -7.383807505    10.131197179    -4.953345118
Si       -6.071966891    10.358134255    -6.206815891
 C       -4.508908352    10.009736695    -5.297968790
 C       -4.540966515     9.017809272    -4.306432693
 C       -3.393665424     8.708228789    -3.584877956
 C       -2.189926997     9.382642214    -3.831017309
 C       -2.161150028    10.369144197    -4.819656518
 C       -3.309647244    10.679110210    -5.550402040
 C       -1.024274745     9.010081211    -3.039662189
 C        0.199392726     9.552218806    -3.153855602
 C        1.344420164     9.152208320    -2.342034513
 C        1.255147325     8.156034744    -1.365095134
 C        2.366730568     7.796874140    -0.606517631
 C        3.597799699     8.434299797    -0.804717802
 C        3.690369026     9.431779045    -1.781983661
 C        2.577472830     9.783485278    -2.543275494
Si        5.045747632     7.933996137     0.215964170
 C        4.559270095     7.766759050     2.008875966
 C        5.679557790     6.254912268    -0.422170709
 C        6.449676536     9.206974106     0.041676929
 C       -6.241918266     9.124821480    -7.642992535
 C       -6.140306472    12.116579920    -6.918964448
 C       -3.600648556    13.397513118     1.547385671
 C       -3.971703944    13.094904386    -1.505469253
 C       -0.664378426    -0.898893834    -1.541637436
 C       -0.610190023    -0.924237432     1.548512086
 H        1.161502180     2.724242328     0.539620420
 H        0.186972809     4.951832983     0.526552727
 H       -3.642559138     3.311863176    -0.559959280
 H       -2.715207463     1.066433343    -0.540589064
 H       -3.482944496     5.611907791    -0.307667019
 H       -0.732053389     6.775725078     0.508203331
 H       -0.601695729     9.104587797     0.739636648
 H       -1.578764773    11.331088992     0.713492080
 H       -5.430247292     9.586609806    -0.331034190
 H       -4.401434940     7.384895252    -0.340196220
 H       -6.401125677    11.562523109     1.365614911
 H       -6.914653680    13.346857244    -1.143704509
 H       -9.109820070    13.813223590    -1.678486769
 H      -11.521827169    13.647081736    -1.284366572
 H      -10.762231762    11.154576164     2.168456764
 H       -8.362270391    11.384859409     1.796461543
 H      -14.221884767    12.011829255     2.087987864
 H      -12.597668341    11.617412650     2.664289206
 H      -13.459929605    10.479054166     1.573526732
 H      -12.735218999     8.330272572     1.024466523
 H      -11.467796215     9.556728542     0.738583068
 H      -11.175699058     7.841077082     0.334765763
 H      -12.486053988     7.741898455    -3.404755104
 H      -10.761648288     7.977269805    -5.171428526
 H       -8.447601602    10.512142197    -2.558713590
 H      -10.115231665    10.217293355    -0.787906952
 H       -8.750119840     8.830978635    -5.973422797
 H       -7.174632494    10.693422366    -4.023373012
 H       -5.454463093     8.462242632    -4.065239279
 H       -3.433849103     7.939712434    -2.812423941
 H       -1.237582945    10.905130320    -5.027660203
 H       -3.230104136    11.455950196    -6.313921088
 H       -1.216018333     8.223767617    -2.297603126
 H        0.399520997    10.339780519    -3.883320990
 H        0.307891217     7.642327755    -1.199593475
 H        2.235203679     7.008137054     0.140045844
 H        4.625283381     9.960556656    -1.984630938
 H        2.671660281    10.558822720    -3.300540951
 H      -14.656396917    12.138441669    -0.201514190
 H      -13.556108209    13.277311794    -1.007579622
 H      -13.774073287    11.421378058    -2.528403363
 H      -12.169001539    11.282451994    -1.845190515
 H      -14.141001572     9.774802724    -0.169572846
 H      -14.290985354     9.313595868    -1.876257867
 H        2.261921519    -1.029741040    -0.046377260
 H        2.274158991     0.474246243     0.909086011
 H        2.261230681     0.548312576    -0.874179068
 H        5.431517094     7.508780165     2.635036658
 H        3.795985420     6.983092999     2.157446184
 H        4.142179812     8.715568216     2.393448046
 H        6.542597711     5.978827581     0.249616151
 C        4.625028591     5.136993560    -0.326807732
 C        6.200252426     6.319674575    -1.869222366
 H        6.647683930     9.300903698    -1.065790001
 C        6.061171489    10.598016203     0.575862552
 C        7.762799842     8.767845798     0.715406353
 H       -7.272095612     9.287859736    -8.073281883
 C       -5.212987557     9.359249225    -8.763497794
 C       -6.142944248     7.659491753    -7.180858029
 H       -5.273455457    12.191738280    -7.638368780
 C       -7.436345637    12.384926981    -7.706695652
 C       -5.971535008    13.217617594    -5.857963897
 H       -2.504003528    13.490922025     1.297833582
 C       -4.199662124    14.814251144     1.592684491
 C       -3.717161739    12.757718807     2.942399487
 H       -4.466086033    14.107897455    -1.512682447
 C       -2.463790405    13.293664766    -1.744902323
 C       -4.543818794    12.263214380    -2.663832474
 H       -1.789843160    -0.843059593    -1.470115624
 C       -0.241872830    -0.208468005    -2.850961450
 C       -0.273162922    -2.385459233    -1.606653426
 H       -0.113289894    -1.936682763     1.514207117
 C       -0.187455036    -0.228678698     2.855543606
 C       -2.133591994    -1.141628739     1.576564634
 H        4.253371348     4.974071558     0.692744183
 H        5.061760501     4.181331518    -0.651018749
 H        3.757321849     5.313231325    -0.979726125
 H        7.022837060     7.033258478    -2.005597958
 H        5.413922656     6.574187732    -2.594513406
 H        6.591519534     5.338038599    -2.173070307
 H        5.144837406    11.001922244     0.123697300
 H        6.858372518    11.322362992     0.355774680
 H        5.923304602    10.612565609     1.665481084
 H        8.156650271     7.821220831     0.323116118
 H        7.673581037     8.667102475     1.805051381
 H        8.544556589     9.521185872     0.539663715
 H       -5.285801918    10.353212894    -9.222627325
 H       -5.370198643     8.634953449    -9.575949258
 H       -4.175360671     9.219701184    -8.427790765
 H       -6.880225844     7.390593771    -6.412353450
 H       -5.148244536     7.403748765    -6.786859362
 H       -6.320251363     6.983438610    -8.028906391
 H       -7.590018013    11.693387612    -8.545066349
 H       -7.409074300    13.392880678    -8.144755772
 H       -8.335644567    12.348812706    -7.075405036
 H       -5.015707033    13.153089924    -5.317746412
 H       -6.779452042    13.224430636    -5.113068762
 H       -5.985099344    14.207367385    -6.335804284
 H       -4.077328875    15.368407193     0.653163719
 H       -3.698830440    15.410530988     2.368601313
 H       -5.269823226    14.818572983     1.844379632
 H       -3.271127077    11.754824253     3.000088643
 H       -4.755583490    12.680133949     3.292140716
 H       -3.187388944    13.372063479     3.684219982
 H       -1.982754139    13.942315162    -1.002929490
 H       -2.298807050    13.768711675    -2.722603471
 H       -1.908372462    12.343725425    -1.773407646
 H       -5.633707906    12.139995969    -2.626016461
 H       -4.099577873    11.255616227    -2.730708629
 H       -4.313758160    12.749319298    -3.623607884
 H       -0.537362338     0.849586087    -2.898840701
 H       -0.723040510    -0.699656096    -3.708767429
 H        0.839779924    -0.258445835    -3.033146078
 H       -0.620864537    -2.964286780    -0.741169329
 H        0.809168535    -2.539089246    -1.698523870
 H       -0.726425027    -2.854572498    -2.492104369
 H        0.898862493    -0.107397819     2.954107524
 H       -0.509511632    -0.825701193     3.720840223
 H       -0.645841453     0.763088854     2.978784682
 H       -2.510819332    -1.699923179     0.710445605
 H       -2.697303218    -0.200319794     1.642952212
 H       -2.412602885    -1.728105044     2.464105040

