187   

Si        0.000000000     0.000000000     0.000000000
 C        1.865312496     0.000000000     0.000000000
 C       -0.652091965     1.722326183     0.000000000
 C       -0.009519368     2.703364819    -0.764853701
 C       -0.483765450     4.013942709    -0.781412910
 C       -1.612597083     4.374918039    -0.039990187
 C       -2.258647142     3.390735498     0.718764118
 C       -1.788128975     2.079655391     0.735681106
 C       -2.142883650     5.734480019    -0.028534600
 C       -1.616315374     6.763844898    -0.713424012
 C       -2.140725640     8.125293400    -0.706893916
 C       -3.267959432     8.497166014     0.030250107
 C       -3.733908258     9.811894422     0.006315324
 C       -3.090994144    10.778308609    -0.772118410
 C       -1.962536972    10.407508395    -1.516992638
 C       -1.492545017     9.098174151    -1.480013827
Si       -3.665840259    12.524410849    -0.837866843
 C       -3.514403262    13.185970301    -2.537328256
 C       -3.619199568    12.424909087    -3.634888911
 C       -3.501803503    12.930910701    -5.003680587
 C       -3.632215645    12.024074550    -6.067718028
 C       -3.529909652    12.448907504    -7.381477952
 C       -3.252337028    13.800645406    -7.667624469
 C       -3.123101515    14.709878027    -6.608700975
 C       -3.268329294    14.276021953    -5.294492929
 N       -3.160297833    14.171420680    -9.037649431
 C       -2.044240595    13.510760853    -9.754128278
 C       -3.222029031    15.618372789    -9.311068608
 C       -0.658355555    13.733468027    -9.121446949
 C       -0.228561167    12.542532717    -8.239726055
 N        0.717272539    12.908141904    -7.167622007
 C        1.879901772    13.589403556    -7.583433248
 C        2.570602699    13.121786081    -8.722438145
 C        3.715638733    13.765542807    -9.159765186
 C        4.241734233    14.863508315    -8.462041023
 C        3.572200756    15.305792856    -7.318689822
 C        2.412855002    14.680422610    -6.875087847
 C        0.043586222    13.416058408    -5.961428974
 C        5.455227705    15.506129860    -8.969902268
 C        6.047861151    16.558380812    -8.390710728
Si        7.560614636    17.393133289    -8.986114767
 C        7.285651715    19.210209135    -9.069951099
 C        5.987493403    19.734446477    -9.056281055
 C        5.782702813    21.110591955    -9.119880879
 C        6.866447837    21.993797616    -9.208357884
 C        8.160999574    21.466423960    -9.227434985
 C        8.370143135    20.089919204    -9.159838531
 C        6.600667868    23.427135802    -9.272542745
 C        7.546753099    24.378108074    -9.355168142
 C        7.280985356    25.811442513    -9.419353246
 C        5.987784562    26.340228004    -9.400396900
 C        5.779512446    27.718018217    -9.463778396
 C        6.863057792    28.598441880    -9.543409202
 C        8.161269880    28.070476875    -9.562728836
 C        8.365746024    26.694808828    -9.503639694
Si        6.604931371    30.419114862    -9.627714080
 C        4.849781417    30.884204922    -9.199972432
 C        7.819743588    31.250740761    -8.420924441
 C        6.986776669    31.031090990   -11.389359372
 C        8.972920441    17.031110907    -7.762790410
 C        8.062228926    16.754780986   -10.705996567
 C       -5.477480397    12.661076762    -0.278025442
 C       -2.584285639    13.576940304     0.319229042
 C       -0.636474628    -0.894681818    -1.554819570
 C       -0.644491404    -0.936750606     1.526998056
 H        0.878207672     2.482153576    -1.364619477
 H        0.036599206     4.758458147    -1.381326236
 H       -3.140543436     3.649286242     1.301829280
 H       -2.337385220     1.355178389     1.343047803
 H       -3.030480490     5.875220138     0.594826260
 H       -0.727925312     6.620410115    -1.336069753
 H       -3.791557062     7.760115874     0.636064397
 H       -4.614067300    10.044768644     0.611572412
 H       -1.420664982    11.123017294    -2.145484445
 H       -0.612836503     8.828872697    -2.062079779
 H       -3.348222785    14.271212236    -2.602872799
 H       -3.793977596    11.339781357    -3.590206818
 H       -3.830330272    10.971817572    -5.858622938
 H       -3.674918211    11.746037776    -8.199276362
 H       -2.910711907    15.757477910    -6.800063893
 H       -3.183338478    15.002244970    -4.485162332
 H       -3.372221256    15.763609188   -10.395677651
 H       -2.324551655    16.178897882    -9.006706032
 H       -4.102789738    16.051525890    -8.805456981
 H       -0.789340718    12.738960802    -5.691734315
 H       -0.373995904    14.429130099    -6.076183180
 H        0.751046995    13.405993096    -5.113772971
 H        2.202686257    12.252279159    -9.260081202
 H        4.223136156    13.401280820   -10.053224474
 H        3.959739301    16.157452479    -6.757263217
 H        1.919143920    15.059526391    -5.985779657
 H        5.838156582    15.039064099    -9.886878712
 H        5.643446582    16.998342939    -7.463834599
 H        5.103319245    19.091727312    -8.994408291
 H        4.766965945    21.501005494    -9.103498809
 H        9.020092441    22.131020334    -9.295754335
 H        9.404729867    19.736134321    -9.176503500
 H        5.540801085    23.697167100    -9.248663353
 H        8.606530520    24.108033368    -9.379176507
 H        5.127378740    25.676764675    -9.335812302
 H        4.745021316    28.071933144    -9.445087906
 H        9.046302204    28.710241734    -9.623339905
 H        9.381170905    26.303574606    -9.521240185
 H       -2.279778605    12.424727619    -9.817148400
 H       -2.049252100    13.878710158   -10.804508035
 H        0.100249982    13.905897950    -9.907337261
 H       -0.659205562    14.663429282    -8.520525271
 H       -1.116839102    12.062772817    -7.767706653
 H        0.243881434    11.751490655    -8.864157970
 H        2.264174905    -1.028092424     0.061894763
 H        2.257877785     0.562761588     0.866955413
 H        2.277637837     0.463783650    -0.912815704
 H        4.715664018    31.980684909    -9.206644737
 H        4.579001033    30.523259136    -8.191121601
 H        4.126864553    30.456663707    -9.916543420
 H        8.852421458    30.962355845    -8.774275981
 C        7.732911659    32.787299262    -8.423999731
 C        7.657364939    30.741629036    -6.977270772
 H        6.747706156    32.133821069   -11.387324799
 C        8.461863558    30.864293123   -11.795622966
 C        6.102890780    30.353201100   -12.452399246
 H        9.888856240    17.534870670    -8.187571545
 C        8.709659486    17.624187759    -6.367189638
 C        9.276704754    15.529266248    -7.622626637
 H        8.112851096    15.630930490   -10.615085043
 C        7.021910104    17.103702864   -11.786290877
 C        9.441529608    17.255666988   -11.170201467
 H       -5.512579754    12.242082953     0.769263216
 C       -5.989590724    14.111615656    -0.225177442
 C       -6.427045852    11.830726080    -1.160074031
 H       -2.987788741    14.628462046     0.252625225
 C       -2.661417483    13.127099782     1.788385737
 C       -1.109196275    13.602958019    -0.119836944
 H       -0.181753424    -1.926710015    -1.523747884
 C       -2.168091876    -1.046833869    -1.578815691
 C       -0.186708799    -0.215135513    -2.860928293
 H       -1.770678336    -0.880124081     1.473466479
 C       -0.251598779    -2.425231453     1.543921969
 C       -0.198782797    -0.290467000     2.851501222
 H        7.911860729    33.230803986    -9.412033786
 H        8.498433814    33.207677788    -7.755525892
 H        6.767818753    33.162600885    -8.058616241
 H        7.763552055    29.650959866    -6.887388138
 H        6.693073551    31.017719546    -6.530441902
 H        8.433418413    31.179493945    -6.333329703
 H        9.159360441    31.390540380   -11.131763953
 H        8.623406742    31.280186859   -12.800923014
 H        8.773431700    29.811498052   -11.847505121
 H        5.028191765    30.500149573   -12.284701602
 H        6.282529533    29.271179569   -12.530546572
 H        6.318673533    30.772846838   -13.445472681
 H        8.532267688    18.708842008    -6.381768974
 H        9.583527113    17.465397367    -5.719405590
 H        7.858066134    17.154843289    -5.855805928
 H        9.559785694    15.051904822    -8.569499942
 H        8.435076644    14.960018470    -7.202080903
 H       10.122702968    15.378324695    -6.937022387
 H        6.008752832    16.748707665   -11.553145477
 H        7.299930441    16.639119232   -12.742591930
 H        6.953625257    18.184473140   -11.977388497
 H       10.258917749    16.971502767   -10.495417226
 H        9.477899696    18.345906962   -11.304155987
 H        9.688352146    16.820281088   -12.149507815
 H       -5.414100288    14.753001054     0.454461345
 H       -7.026212273    14.130208833     0.141841146
 H       -6.006133275    14.595897177    -1.211455586
 H       -6.161814747    10.765634719    -1.209326686
 H       -6.484215339    12.203039791    -2.193422037
 H       -7.449847888    11.874921385    -0.760021149
 H       -3.675877811    13.170093982     2.205101407
 H       -2.043641578    13.785324556     2.416615756
 H       -2.278746275    12.108230502     1.945379238
 H       -0.964777610    13.963894199    -1.147185902
 H       -0.623257859    12.619598958    -0.040220835
 H       -0.535403365    14.280372398     0.528689263
 H       -2.562940960    -1.613988389    -0.726255213
 H       -2.477823161    -1.594153708    -2.480874567
 H       -2.693289353    -0.081564090    -1.611025806
 H        0.903603533    -0.139067841    -2.959956427
 H       -0.606230627     0.793823187    -2.983276331
 H       -0.533180792    -0.797929798    -3.726576990
 H       -0.608618762    -2.979051049     0.665994714
 H       -0.695701516    -2.920402212     2.419762893
 H        0.832449112    -2.582195603     1.620343094
 H       -0.473745231     0.770259056     2.935637072
 H        0.884366490    -0.363305297     3.018810132
 H       -0.677033402    -0.800668478     3.699697807

