187   

Si        0.000000000     0.000000000     0.000000000
 C        1.865244260     0.000000000     0.000000000
 C       -0.664007398     1.716582222     0.000000000
 C        0.129234666     2.796412311     0.400334874
 C       -0.384193178     4.093340295     0.396450060
 C       -1.703193852     4.337413944     0.006000622
 C       -2.499187999     3.252763791    -0.386472605
 C       -1.988599521     1.958207467    -0.388114931
 C       -2.283797956     5.675180882    -0.014269197
 C       -1.633157558     6.798912262     0.331633253
 C       -2.221946635     8.133604452     0.308375032
 C       -3.543914756     8.363586994    -0.084756781
 C       -4.069293440     9.654038270    -0.093249818
 C       -3.281217773    10.745010346     0.292176000
 C       -1.957010316    10.518392876     0.684991875
 C       -1.434875698     9.226775558     0.691146484
Si       -3.987188923    12.443301369     0.276363138
 C       -2.675514619    13.703345210     0.474030858
 C       -2.723961697    14.704701387     1.362677253
 C       -1.686097866    15.721449086     1.535956729
 C       -1.876848240    16.711936266     2.510744858
 C       -0.931667712    17.701468816     2.722912876
 C        0.207224959    17.791935067     1.893842027
 C        0.388748378    16.809010653     0.901825502
 C       -0.533635201    15.780232623     0.749479031
 N        1.158691549    18.802919163     2.122060214
 C        0.677450382    20.119619974     2.579354161
 C        2.260222389    18.908489291     1.150221267
 C       -0.061618991    20.955946353     1.517008486
 C       -1.583626063    20.716118222     1.557178022
 N       -2.325108168    21.210906243     0.389085498
 C       -2.231129148    20.472920989    -0.812743905
 C       -1.446956723    19.312410787    -0.933388721
 C       -1.389291735    18.624646986    -2.136610475
 C       -2.171082385    19.016431783    -3.230174814
 C       -2.981181946    20.149262676    -3.097865772
 C       -3.014058506    20.872025829    -1.914197648
 C       -2.249764041    22.675377595     0.235641095
 C       -2.069348484    18.253771567    -4.474663739
 C       -2.763260874    18.528712798    -5.587173160
Si       -2.630983326    17.571254935    -7.138698880
 C       -2.212797436    15.805886497    -6.838068659
 C       -2.506287905    15.194337692    -5.614913592
 C       -2.184729806    13.855270563    -5.397998766
 C       -1.575881201    13.094960090    -6.398753563
 C       -1.290755801    13.707245341    -7.626915197
 C       -1.607056398    15.044901656    -7.846388288
 C       -1.220074401    11.692228588    -6.221517811
 C       -1.427813015    10.968896768    -5.107930048
 C       -1.057357299     9.563947329    -4.967219941
 C       -0.446075546     8.853598290    -6.003878662
 C       -0.101891273     7.512452548    -5.844872875
 C       -0.356092949     6.852725758    -4.638605810
 C       -0.968178518     7.562375775    -3.595766661
 C       -1.316237853     8.900896863    -3.760164951
Si        0.102290013     5.081918962    -4.439134947
 C        1.287070947     4.532566939    -5.772862670
 C        0.896671887     4.833687566    -2.728524740
 C       -1.466395091     4.003866019    -4.495547675
 C       -4.310149842    17.656671893    -8.028983531
 C       -1.304602587    18.368898753    -8.244881494
 C       -4.832079745    12.732708810    -1.406516871
 C       -5.291568570    12.605232890     1.650724580
 C       -0.650246969    -0.880273204    -1.559229746
 C       -0.634975749    -0.928874471     1.532310030
 H        1.165483657     2.665741969     0.724063453
 H        0.256126740     4.917736066     0.706247898
 H       -3.530964691     3.420049061    -0.690784603
 H       -2.656192179     1.152301887    -0.705184804
 H       -3.328412813     5.715100016    -0.337851179
 H       -0.589556450     6.762874370     0.657269931
 H       -4.175833899     7.532175950    -0.391635647
 H       -5.107556966     9.773604150    -0.415717885
 H       -1.297687226    11.334579635     0.996695655
 H       -0.401912303     9.069690907     0.996316890
 H       -1.825021772    13.588162435    -0.215902089
 H       -3.569666376    14.843713301     2.051343160
 H       -2.773322567    16.692161739     3.132088168
 H       -1.074894281    18.408409214     3.535582343
 H        1.253114389    16.833624394     0.245900617
 H       -0.358694234    15.021544606    -0.015417261
 H        2.944179211    19.722288619     1.443150747
 H        1.922742314    19.095977935     0.117178386
 H        2.849888705    17.973523384     1.170124510
 H       -2.329990195    23.159146100     1.223035982
 H       -3.105588409    23.028548648    -0.365745209
 H       -1.320042163    23.013897339    -0.248301525
 H       -0.864504049    18.941394069    -0.093145892
 H       -0.744844131    17.747556298    -2.214736718
 H       -3.601785606    20.473510798    -3.933530629
 H       -3.660263865    21.741387998    -1.834326419
 H       -1.355321100    17.419403783    -4.409788234
 H       -3.462270028    19.377268376    -5.629834451
 H       -2.995434738    15.734834036    -4.797006825
 H       -2.413450277    13.404121002    -4.433493854
 H       -0.817780609    13.132702210    -8.420732003
 H       -1.360950847    15.466940450    -8.824548465
 H       -0.748163630    11.233828056    -7.096604748
 H       -1.897290736    11.413524543    -4.226143224
 H       -0.232734788     9.343506812    -6.952000937
 H        0.371520833     7.011895673    -6.693681481
 H       -1.190841792     7.096589255    -2.629551598
 H       -1.791468651     9.434374771    -2.937598283
 H        0.037556839    19.976240276     3.478797196
 H        1.567792150    20.684264877     2.944823479
 H        0.148907973    22.029182883     1.675838115
 H        0.331862718    20.731709081     0.507142508
 H       -1.811781420    19.628505549     1.663111852
 H       -2.020716037    21.202586335     2.459458909
 H        2.263324828    -1.028887250    -0.056160696
 H        2.276375075     0.464745884     0.913065518
 H        2.260121011     0.556543953    -0.869724445
 H        1.563503508     3.470807875    -5.645353985
 H        2.218742064     5.125510638    -5.740117462
 H        0.851125501     4.644159062    -6.780487642
 H        0.043724718     4.873990601    -1.986928160
 C        1.587301255     3.466383051    -2.581470183
 C        1.898472308     5.940215850    -2.354180564
 H       -1.159311996     2.996370385    -4.090122921
 C       -2.601272876     4.549333836    -3.611409780
 C       -2.011201445     3.797643549    -5.920489055
 H       -4.519934843    18.752229635    -8.196321175
 C       -4.308149386    16.955855868    -9.398585222
 C       -5.449577932    17.076277037    -7.171750305
 H       -1.333272435    17.808365107    -9.223451616
 C       -1.576000064    19.854628100    -8.540843262
 C        0.109396605    18.225913294    -7.653732381
 H       -5.782934921    12.126856905    -1.387059580
 C       -5.205487285    14.205716650    -1.644049908
 C       -3.976160234    12.233341024    -2.583317431
 H       -5.607465993    13.689073222     1.648961290
 C       -6.549888597    11.749176137     1.421932895
 C       -4.718307558    12.271613723     3.040558957
 H       -1.771329337    -0.934752666    -1.438836910
 C       -0.353683324    -0.096351276    -2.851030450
 C       -0.124338876    -2.318207936    -1.712781488
 H       -0.171764392    -1.956610203     1.482722882
 C       -0.190692335    -0.268318529     2.850298485
 C       -2.164953916    -1.096903812     1.555965328
 H        0.923097674     2.617563758    -2.792764891
 H        1.927263137     3.330373855    -1.543910913
 H        2.476479411     3.364860426    -3.216152990
 H        1.456660416     6.946943210    -2.369421402
 H        2.780456527     5.959150119    -3.007259063
 H        2.271011668     5.780874452    -1.332784967
 H       -2.305284458     4.689591682    -2.562044551
 H       -3.443881900     3.844380856    -3.602469939
 H       -3.000140755     5.507432363    -3.974418692
 H       -1.290586861     3.320485772    -6.596337330
 H       -2.341580619     4.733972225    -6.391030518
 H       -2.891622206     3.139963078    -5.894346500
 H       -3.584111289    17.381458537   -10.104824419
 H       -5.294868984    17.055930045    -9.873574542
 H       -4.112427001    15.876239308    -9.326631378
 H       -5.552045924    17.565116239    -6.193030576
 H       -5.341559736    15.996546016    -6.993116503
 H       -6.412488804    17.207905458    -7.684822979
 H       -2.540833734    20.032105053    -9.032544708
 H       -0.807834998    20.248219186    -9.221971933
 H       -1.537769591    20.482885426    -7.639758886
 H        0.402816975    17.181794913    -7.475415095
 H        0.233836282    18.770399275    -6.706576986
 H        0.853228174    18.640449212    -8.348356983
 H       -5.885756410    14.611158339    -0.884498134
 H       -5.723479132    14.313468737    -2.608113444
 H       -4.329142848    14.870131538    -1.688419654
 H       -3.763483028    11.155513843    -2.535477510
 H       -3.015916899    12.762890236    -2.661915104
 H       -4.509375024    12.396144871    -3.532119033
 H       -7.075001904    11.984749240     0.487684958
 H       -7.274371849    11.925165880     2.230791621
 H       -6.341725344    10.670406493     1.430522569
 H       -3.834090127    12.866112532     3.308391955
 H       -4.442339616    11.212197851     3.143242141
 H       -5.470636525    12.469936152     3.816894725
 H       -0.765112549     0.923947599    -2.842168214
 H       -0.810778570    -0.603190342    -3.712868654
 H        0.719499070    -0.021467230    -3.071274110
 H       -0.357659689    -2.961613024    -0.854722238
 H        0.960305420    -2.362382881    -1.878496722
 H       -0.587755362    -2.796037980    -2.588250445
 H        0.899046762    -0.184981822     2.951302219
 H       -0.532792161    -0.868153434     3.706029206
 H       -0.616615174     0.735691765     2.989727346
 H       -2.555878293    -1.650984812     0.693260934
 H       -2.699475269    -0.137974603     1.611554285
 H       -2.466458433    -1.666739320     2.447103686

