187   

Si        0.000000000     0.000000000     0.000000000
 C        1.865325376     0.000000000     0.000000000
 C       -0.682280989     1.709522543     0.000000000
 C        0.131758326     2.815540057     0.263439022
 C       -0.400274997     4.105032820     0.259790241
 C       -1.756671569     4.317541350     0.000712722
 C       -2.571865876     3.207715789    -0.259766471
 C       -2.043234513     1.920100568    -0.260796594
 C       -2.358166963     5.646758863    -0.013860839
 C       -1.693414497     6.792141321     0.214606174
 C       -2.299151213     8.119720854     0.199035478
 C       -3.657482494     8.323634818    -0.061134316
 C       -4.196486796     9.609212923    -0.066521276
 C       -3.382805634    10.721272414     0.175579888
 C       -2.021304891    10.521300581     0.434813974
 C       -1.488791855     9.234456548     0.450656170
Si       -4.086137421    12.421344202     0.170279361
 C       -2.761511561    13.636168565    -0.154996887
 C       -2.510446580    14.739558653     0.561798616
 C       -1.434473742    15.684800875     0.260546197
 C       -1.265767311    16.808208082     1.082752498
 C       -0.262932226    17.732052415     0.840183565
 C        0.651359520    17.533163707    -0.219122349
 C        0.484136317    16.402622039    -1.043968442
 C       -0.555933084    15.512915564    -0.813043280
 N        1.659629760    18.473415104    -0.453828748
 C        2.225266222    19.195096609     0.695744327
 C        2.609159254    18.204248923    -1.540290368
 C        2.724245479    18.314771945     1.856896566
 C        4.075669153    17.622798731     1.606281629
 N        5.251251830    18.504920266     1.455921691
 C        5.498282186    18.945828105     0.130455440
 C        5.805659530    17.957485305    -0.826835451
 C        6.058197202    18.315950664    -2.140308816
 C        6.043017162    19.662478411    -2.536499219
 C        5.767076019    20.639319412    -1.577190614
 C        5.511358357    20.294267827    -0.253980854
 C        5.365418910    19.525567320     2.508278051
 C        6.317114348    19.984732030    -3.938900558
 C        6.330347904    21.228940867    -4.433329171
Si        6.666158446    21.683609345    -6.172272601
 C        5.350509141    22.816935367    -6.777114160
 C        4.105763340    22.857994654    -6.136892457
 C        3.107561898    23.715369240    -6.592859802
 C        3.323585089    24.541161438    -7.703803334
 C        4.564995764    24.491584960    -8.344733599
 C        5.568476465    23.638065777    -7.888532075
 C        2.246703728    25.422341262    -8.143353955
 C        2.325363128    26.264331404    -9.187764663
 C        1.248809918    27.145644068    -9.627658049
 C        0.007314779    27.196919035    -8.988697539
 C       -0.993996966    28.054931870    -9.443332208
 C       -0.772026930    28.886329218   -10.545600200
 C        0.472491529    28.836961585   -11.188229743
 C        1.467767957    27.975315381   -10.735711166
Si       -2.083259414    30.024340346   -11.157944759
 C       -3.470713349    30.199974978    -9.923677899
 C       -1.290392206    31.720539026   -11.501650304
 C       -2.795450346    29.348777195   -12.788686083
 C        8.351217568    22.562759051    -6.253355114
 C        6.723461738    20.145050494    -7.287878615
 C       -5.389941055    12.565828274    -1.208811621
 C       -4.931006983    12.746619645     1.842578939
 C       -0.656130548    -0.902325601    -1.542556844
 C       -0.609704442    -0.926367733     1.547240341
 H        1.199691190     2.711944040     0.474220705
 H        0.255468090     4.949526266     0.463789522
 H       -3.631088869     3.351235550    -0.464646067
 H       -2.727529566     1.093864613    -0.473467659
 H       -3.430328782     5.660219183    -0.231152652
 H       -0.621501955     6.780214031     0.432264917
 H       -4.308655660     7.474671922    -0.260038504
 H       -5.266259462     9.705950859    -0.270944598
 H       -1.340451574    11.355929635     0.632163040
 H       -0.429370885     9.096887452     0.658237254
 H       -2.155788886    13.386751228    -1.042431695
 H       -3.098977759    15.021614542     1.444497443
 H       -1.944707748    16.968872774     1.920818334
 H       -0.186181792    18.613978498     1.468407275
 H        1.161597332    16.214192302    -1.870277511
 H       -0.672703786    14.654488199    -1.477039215
 H        3.310223530    19.052434388    -1.653691526
 H        2.057726580    18.119742530    -2.494965980
 H        3.206658403    17.290515484    -1.387513357
 H        5.317188154    19.028029954     3.492881818
 H        4.591104662    20.307539346     2.473986030
 H        6.357199777    20.007558675     2.436302241
 H        5.853899550    16.913510584    -0.522575552
 H        6.287687235    17.540345061    -2.871667973
 H        5.754855041    21.693122101    -1.860184886
 H        5.308131376    21.078298283     0.469431702
 H        6.511333538    19.097478552    -4.555598479
 H        6.139910755    22.100973991    -3.785013148
 H        3.878444328    22.230641765    -5.268711508
 H        2.147591677    23.738823594    -6.080126173
 H        4.758041449    25.122311093    -9.210487257
 H        6.518811349    23.643380075    -8.429321905
 H        1.330301914    25.356395708    -7.549372926
 H        3.241359883    26.329829836    -9.782219621
 H       -0.189729892    26.562565120    -8.126327217
 H       -1.944926132    28.049590044    -8.903341282
 H        0.702929643    29.463630563   -12.054459688
 H        2.426932608    27.949540658   -11.249314221
 H        3.048451161    19.853261268     0.334528352
 H        1.433761136    19.887481209     1.073275522
 H        2.779055912    18.929212021     2.775055803
 H        1.969666659    17.530058488     2.078707241
 H        4.301278168    16.946518401     2.466277432
 H        3.994370670    16.965764460     0.711574070
 H        2.262958668    -1.029996410    -0.036208820
 H        2.274855201     0.482868300     0.904538543
 H        2.261513789     0.539477237    -0.879457648
 H       -4.234000606    30.913797955   -10.281748117
 H       -3.093916343    30.575629160    -8.954957211
 H       -3.977843195    29.237001444    -9.737865682
 H       -0.498737831    31.538851371   -12.285634585
 C       -2.279249188    32.757737003   -12.062848738
 C       -0.596574825    32.309149003   -10.259850225
 H       -3.622218098    30.060108177   -13.078033126
 C       -1.774237033    29.312482037   -13.939701463
 C       -3.407820121    27.945212315   -12.628615916
 H        8.525049884    22.800914814    -7.342733126
 C        8.362939704    23.887570554    -5.470173926
 C        9.514293252    21.680612392    -5.767148640
 H        7.471370039    19.445238599    -6.814121140
 C        5.365958766    19.421795677    -7.358713571
 C        7.196560754    20.447521045    -8.720804309
 H       -6.198093761    11.821273831    -0.953121519
 C       -6.034257070    13.961240456    -1.282464610
 C       -4.826727511    12.198943243    -2.593368118
 H       -5.252669513    13.828129178     1.822635376
 C       -6.183235990    11.881678777     2.072054599
 C       -3.972248658    12.552860691     3.031899827
 H       -1.780686839    -0.905797127    -1.443828336
 C       -0.300888660    -0.169862956    -2.849113099
 C       -0.188021676    -2.364922633    -1.644153621
 H       -0.111463828    -1.938197891     1.511961173
 C       -0.187620918    -0.231671781     2.854945128
 C       -2.132663261    -1.146961957     1.575829938
 H       -2.762808285    32.437657731   -12.994821709
 H       -1.749365814    33.692506712   -12.297437651
 H       -3.070633200    33.024912855   -11.350043278
 H        0.165244433    31.642210749    -9.831310342
 H       -1.299953890    32.566573850    -9.456878714
 H       -0.075292902    33.240082943   -10.524782438
 H       -1.349800674    30.296054314   -14.177453529
 H       -2.259598714    28.957998437   -14.860792009
 H       -0.940894202    28.621589000   -13.748955047
 H       -4.209868726    27.901517290   -11.880594402
 H       -2.662647191    27.181677554   -12.362539567
 H       -3.855971451    27.619190828   -13.578202870
 H        7.580644873    24.590224968    -5.790588243
 H        9.320598030    24.406007867    -5.621494270
 H        8.258125506    23.745456394    -4.385922011
 H        9.624555833    20.750495161    -6.339432152
 H        9.431761014    21.409681444    -4.704835051
 H       10.466114030    22.220857364    -5.872884213
 H        4.968651938    19.131814214    -6.376593751
 H        5.462765983    18.493733480    -7.939541929
 H        4.591569029    20.019269516    -7.861745952
 H        8.205003032    20.878115269    -8.765602725
 H        6.517812186    21.121284445    -9.262749904
 H        7.234902032    19.517952161    -9.307454587
 H       -6.537473806    14.258123554    -0.353365304
 H       -6.802815467    13.980375421    -2.068181636
 H       -5.314031570    14.752073929    -1.537846229
 H       -4.383696429    11.193803138    -2.631267528
 H       -4.068140751    12.909960261    -2.948760666
 H       -5.631590858    12.207679620    -3.341966069
 H       -6.965752060    12.039673399     1.319081452
 H       -6.638131160    12.129131000     3.042216722
 H       -5.960423633    10.805845576     2.105739260
 H       -3.064048407    13.167731060     2.969200123
 H       -3.652720506    11.507819312     3.154510796
 H       -4.472015654    12.833820135     3.969422266
 H       -0.655042227     0.870776393    -2.872995340
 H       -0.772680959    -0.673996072    -3.704513801
 H        0.777648381    -0.156779483    -3.054659732
 H       -0.469402559    -2.973117979    -0.774824134
 H        0.897432321    -2.458736689    -1.780917072
 H       -0.649982800    -2.846646527    -2.518227879
 H        0.898552624    -0.108046152     2.953011271
 H       -0.507711997    -0.830293072     3.719809464
 H       -0.647814403     0.759170809     2.979669591
 H       -2.507594272    -1.712752346     0.713680835
 H       -2.698922589    -0.206811613     1.635640403
 H       -2.410856843    -1.727839100     2.467372557

