187   

Si        0.000000000     0.000000000     0.000000000
 C        1.865166879     0.000000000     0.000000000
 C       -0.671714944     1.714229229     0.000000000
 C        0.110072041     2.788968416    -0.436148937
 C       -0.402435294     4.085951072    -0.434593833
 C       -1.707470542     4.338182002    -0.003225054
 C       -2.491355892     3.259740956     0.427971668
 C       -1.982620601     1.963726931     0.427389660
 C       -2.284887598     5.678147997     0.015520563
 C       -1.641803940     6.793153222    -0.370692117
 C       -2.217035557     8.133939896    -0.352843054
 C       -3.521642998     8.389185996     0.077950254
 C       -4.031071785     9.687522660     0.078214680
 C       -3.250304807    10.757291320    -0.370216007
 C       -1.942605884    10.503944188    -0.806114794
 C       -1.432460983     9.208876304    -0.791808537
Si       -3.890369551    12.482078452    -0.383576510
 C       -3.241599564    13.434035765    -1.802974809
 C       -2.911415197    12.892681203    -2.983452084
 C       -2.391925091    13.653150459    -4.120808349
 C       -2.081867427    12.971492979    -5.306716376
 C       -1.587479633    13.644155290    -6.411915343
 C       -1.334019554    15.031603684    -6.349686229
 C       -1.642505939    15.716005859    -5.159268616
 C       -2.183267726    15.033887464    -4.076586573
 N       -0.831324575    15.698197991    -7.483932940
 C        0.139678856    14.954872017    -8.309614813
 C       -0.465125447    17.114926822    -7.312824370
 C        1.392957794    14.521876066    -7.527114996
 C        2.604357283    14.247037373    -8.432677609
 N        3.087499630    15.394762047    -9.235063747
 C        2.991736561    16.658519900    -8.611346438
 C        3.552292285    16.807191501    -7.324456837
 C        3.484311502    18.025679111    -6.671402992
 C        2.891574464    19.142035766    -7.282018485
 C        2.363255371    18.997546577    -8.566141103
 C        2.418182729    17.778728531    -9.233742836
 C        2.690977822    15.326360349   -10.650689303
 C        2.846543557    20.407187164    -6.545717725
 C        2.307309084    21.534350736    -7.027232073
Si        2.223372502    23.138217180    -6.154995593
 C        2.851113143    24.478330317    -7.245833052
 C        3.694804685    24.177537730    -8.322062626
 C        4.170665854    25.192344342    -9.148777397
 C        3.825522976    26.529721583    -8.914189481
 C        2.988193699    26.826540226    -7.834741740
 C        2.505873085    25.813106973    -7.007902055
 C        4.349296366    27.557120652    -9.808370880
 C        4.092053672    28.871437159    -9.697516966
 C        4.615520340    29.899177155   -10.591344864
 C        5.452455895    29.604930880   -11.670724151
 C        5.930158310    30.619469771   -12.500243887
 C        5.574880918    31.952350576   -12.270777920
 C        4.734676629    32.250058601   -11.189164586
 C        4.263797255    31.235909329   -10.360010086
Si        6.196876288    33.302962946   -13.356358325
 C        6.947529212    32.630629659   -14.925951440
 C        4.740129955    34.457875831   -13.766247204
 C        7.519766843    34.305055494   -12.423973332
 C        0.404161515    23.476023587    -5.709234345
 C        3.248954177    23.107892943    -4.553981598
 C       -5.791441798    12.482403984    -0.460728171
 C       -3.345076901    13.347443789     1.220570555
 C       -0.626495425    -0.911325234    -1.548900448
 C       -0.652046008    -0.913825577     1.537758743
 H        1.138114551     2.654592432    -0.783810206
 H        0.227960141     4.905159020    -0.775596652
 H       -3.510783777     3.433898493     0.767134916
 H       -2.641888017     1.162812120     0.773419292
 H       -3.315970911     5.727275212     0.377481694
 H       -0.610480147     6.743221359    -0.732406390
 H       -4.152558767     7.572081573     0.422368391
 H       -5.055373425     9.825450346     0.434862806
 H       -1.287132529    11.303746654    -1.167632335
 H       -0.413333786     9.031734438    -1.129992449
 H       -3.153560460    14.516608666    -1.626597449
 H       -2.998614379    11.815736901    -3.187393469
 H       -2.245219749    11.894657154    -5.367279694
 H       -1.395086482    13.095015032    -7.328840460
 H       -1.467289930    16.783624491    -5.070529767
 H       -2.429616374    15.591466875    -3.171919083
 H       -0.097567687    17.527336249    -8.269258350
 H        0.319811810    17.283021187    -6.556452942
 H       -1.365607937    17.692305806    -7.037712454
 H        2.994570378    14.347054170   -11.061249818
 H        3.245676212    16.092723860   -11.222260336
 H        1.612999541    15.460967233   -10.830630777
 H        4.043073949    15.959758674    -6.851374458
 H        3.911192732    18.120160087    -5.672175750
 H        1.902443393    19.851732890    -9.065266148
 H        1.997204521    17.706027163   -10.231484378
 H        3.306741185    20.344757636    -5.550954964
 H        1.847664866    21.561535914    -8.029699405
 H        4.001722544    23.151317519    -8.549111366
 H        4.820840513    24.940162996    -9.984500029
 H        2.705055504    27.857467765    -7.630843987
 H        1.853257075    26.105681898    -6.180749965
 H        4.991859947    27.181339245   -10.610093953
 H        3.449306409    29.246945753    -8.895863786
 H        5.740712413    28.575006900   -11.873295885
 H        6.581926817    30.327494852   -13.328320096
 H        4.422958681    33.273450063   -10.961790195
 H        3.613210393    31.486989040    -9.524424725
 H       -0.373143625    14.071006864    -8.749582193
 H        0.418266712    15.602239866    -9.171493074
 H        1.647593333    15.298205375    -6.776801198
 H        1.167628886    13.616749187    -6.929327007
 H        3.465787134    13.922102836    -7.799253764
 H        2.382690368    13.394064299    -9.110141212
 H        2.263728865    -1.028852278     0.053650954
 H        2.259367858     0.554879469     0.870988791
 H        2.276086463     0.468332638    -0.911310726
 H        7.282620594    33.447935072   -15.589336471
 H        6.212759879    32.026907701   -15.489025360
 H        7.822889315    31.990187648   -14.719506948
 H        4.377735466    34.861526169   -12.776222314
 C        5.135783491    35.656418622   -14.646921634
 C        3.566834055    33.713983063   -14.429177337
 H        7.895741652    35.072790332   -13.160482330
 C        6.974554266    35.052331111   -11.193803488
 C        8.714704400    33.438809827   -11.985314464
 H        0.399107305    24.447869554    -5.136063803
 C       -0.484434938    23.653530748    -6.953160180
 C       -0.205068939    22.387238389    -4.808458050
 H        2.891250955    22.208630300    -3.973589334
 C        4.754618734    22.936156491    -4.826224585
 C        3.045060425    24.354256593    -3.674521501
 H       -6.141901026    11.922814246     0.454021179
 C       -6.399765748    13.895547461    -0.413736292
 C       -6.325629782    11.751536475    -1.705483173
 H       -3.768154583    14.392032742     1.170812702
 C       -3.892314091    12.669617252     2.488731887
 C       -1.813741913    13.456897118     1.332637554
 H       -0.152353782    -1.934521556    -1.516529976
 C       -2.154749457    -1.093354547    -1.572867352
 C       -0.190268137    -0.224576766    -2.856115148
 H       -1.776723371    -0.920228427     1.441007877
 C       -0.180671688    -2.376311380     1.627686235
 C       -0.295341839    -0.190719237     2.849077383
 H        5.922777413    36.280454125   -14.203983176
 H        4.268057270    36.315715406   -14.794940684
 H        5.469184730    35.359360728   -15.650088103
 H        3.193136057    32.871132047   -13.830189405
 H        3.812878002    33.326809148   -15.426840927
 H        2.715186850    34.396038835   -14.563522025
 H        6.171511174    35.760394758   -11.434343951
 H        7.776101981    35.645004070   -10.729021823
 H        6.604456002    34.374010014   -10.412117068
 H        9.217272840    32.933598518   -12.820111476
 H        8.437711540    32.670129200   -11.249470041
 H        9.477642318    34.066004305   -11.502081744
 H       -0.132715864    24.444530551    -7.630716161
 H       -1.502187032    23.939565750    -6.651463722
 H       -0.585418647    22.731980201    -7.542526917
 H        0.325969348    22.263687003    -3.855779771
 H       -0.248425489    21.402658579    -5.296032514
 H       -1.241219021    22.648962783    -4.550284140
 H        4.996279953    22.042057335    -5.416960593
 H        5.301092471    22.836854605    -3.877770025
 H        5.194429103    23.800223647    -5.345408873
 H        2.006173463    24.493795448    -3.349773210
 H        3.372914680    25.282219264    -4.164195786
 H        3.643405638    24.267226401    -2.755708481
 H       -6.127069444    14.458392942     0.487926830
 H       -7.497501496    13.831904677    -0.414518496
 H       -6.128021603    14.506311575    -1.286277174
 H       -5.982985754    10.710443750    -1.782735059
 H       -6.056784679    12.256760279    -2.644888955
 H       -7.423628149    11.713447773    -1.679481923
 H       -4.988659955    12.639519292     2.528118902
 H       -3.568422382    13.223921485     3.381518187
 H       -3.524627600    11.641456073     2.617558699
 H       -1.350489778    13.980387602     0.485137060
 H       -1.321962940    12.477980891     1.427427374
 H       -1.540960217    14.025461496     2.232916349
 H       -2.538196468    -1.668363796    -0.720493959
 H       -2.453068018    -1.647453470    -2.474767475
 H       -2.698354451    -0.138451030    -1.607294378
 H        0.898467070    -0.129184001    -2.956594730
 H       -0.625726121     0.777738901    -2.977629082
 H       -0.527775443    -0.812865619    -3.721457882
 H       -0.462525201    -2.978500862     0.754336043
 H       -0.640108680    -2.865633407     2.498877786
 H        0.905228502    -2.469031934     1.761727094
 H       -0.648163059     0.850085532     2.881124824
 H        0.783623351    -0.179788118     3.053171253
 H       -0.766008859    -0.701002913     3.701456034

