187   

Si        0.000000000     0.000000000     0.000000000
 C        1.865520255     0.000000000     0.000000000
 C       -0.676326994     1.712107820     0.000000000
 C        0.148855074     2.815181294     0.240333022
 C       -0.375686771     4.107593824     0.237663588
 C       -1.735300150     4.326584338     0.001578456
 C       -2.561488316     3.219920281    -0.236412140
 C       -2.040420594     1.929075725    -0.237960873
 C       -2.327250990     5.660301759    -0.010567402
 C       -1.647212966     6.800323451     0.198975032
 C       -2.237030674     8.134930275     0.187289821
 C       -3.597003823     8.355855042    -0.048720448
 C       -4.118478920     9.648857788    -0.050778012
 C       -3.285850566    10.750717922     0.171683222
 C       -1.922660133    10.533394850     0.407221980
 C       -1.407262965     9.239752447     0.419151275
Si       -3.960949461    12.462205049     0.171620286
 C       -2.614479442    13.644313849    -0.185986961
 C       -2.328785471    14.744337756     0.522606275
 C       -1.238698754    15.666692866     0.201067491
 C       -1.037068884    16.787759656     1.019602684
 C       -0.020638409    17.691775161     0.760420376
 C        0.817845008    17.520609392    -0.362937961
 C        0.616884552    16.395500100    -1.184960039
 C       -0.385803162    15.480366940    -0.889527846
 N        1.842839848    18.446786764    -0.609876222
 C        1.596312010    19.854901693    -0.256993845
 C        2.654529506    18.251135354    -1.819283592
 C        0.325125895    20.470027793    -0.866586253
 C        0.497930439    20.757499455    -2.367904315
 N       -0.736423970    21.150167608    -3.059592165
 C       -1.702926346    20.158089707    -3.325310827
 C       -1.506456005    18.799375606    -3.017232300
 C       -2.492832166    17.864328979    -3.301022217
 C       -3.676658141    18.234940837    -3.950583045
 C       -3.856455629    19.582178092    -4.283701357
 C       -2.892755906    20.532066810    -3.982238077
 C       -1.265701805    22.451737898    -2.612413572
 C       -4.692440917    17.217832684    -4.231619146
 C       -5.852454090    17.481600356    -4.847543980
Si       -7.175870068    16.287390484    -5.240791190
 C       -7.661277573    16.452042566    -7.007699363
 C       -6.787349565    17.042685851    -7.928535168
 C       -7.153284634    17.168070674    -9.266375850
 C       -8.393199887    16.697666643    -9.717861207
 C       -9.260245007    16.102280889    -8.796975760
 C       -8.899079396    15.978736989    -7.456149062
 C       -8.730571195    16.852264150   -11.129080216
 C       -9.883815315    16.450045732   -11.689479994
 C      -10.219663510    16.605397591   -13.100981083
 C       -9.352821301    17.200530725   -14.021132047
 C       -9.714326221    17.328825448   -15.362141314
 C      -10.956483674    16.869780854   -15.810972445
 C      -11.828473154    16.273420311   -14.889930010
 C      -11.462381430    16.141652448   -13.553341688
Si      -11.449146738    17.031363908   -17.577238271
 C      -10.287413538    18.150454756   -18.514399256
 C      -11.437469257    15.315500426   -18.401296105
 C      -13.221997204    17.721737576   -17.638695620
 C       -6.602243829    14.504714706    -4.922274991
 C       -8.679928699    16.674145492    -4.139757719
 C       -5.295265753    12.615407974    -1.173107428
 C       -4.760806357    12.816763140     1.859897710
 C       -0.658987061    -0.898389658    -1.543356930
 C       -0.608630855    -0.927493036     1.546783225
 H        1.219935830     2.707141887     0.432391046
 H        0.288841952     4.949315528     0.424284750
 H       -3.623358185     3.368349296    -0.423162242
 H       -2.732971115     1.105329337    -0.432627684
 H       -3.402829114     5.681829554    -0.208274433
 H       -0.571401540     6.777967664     0.396989228
 H       -4.262979868     7.514801043    -0.231655046
 H       -5.190328498     9.759043557    -0.236194707
 H       -1.226778116    11.359077034     0.589479778
 H       -0.346007286     9.088878397     0.608063251
 H       -2.027340463    13.375823531    -1.080150044
 H       -2.899504702    15.043870421     1.411314296
 H       -1.686922962    16.951270215     1.880084330
 H        0.128179422    18.533528162     1.429985697
 H        1.240254114    16.223617293    -2.056250688
 H       -0.512620642    14.610656075    -1.536736851
 H        3.425527865    19.035687821    -1.892648894
 H        2.068863529    18.249707407    -2.754484771
 H        3.188661805    17.285162497    -1.738326722
 H       -0.444931952    23.111433789    -2.288683449
 H       -1.988931544    22.362527492    -1.785623710
 H       -1.762395962    22.951537893    -3.463710696
 H       -0.597256688    18.462803662    -2.524402861
 H       -2.331799190    16.823502402    -3.013429476
 H       -4.767929847    19.899831045    -4.792585448
 H       -3.058277386    21.567467520    -4.264248419
 H       -4.410199329    16.213646700    -3.889956889
 H       -6.100787148    18.508112923    -5.168354726
 H       -5.803883240    17.423073377    -7.632785440
 H       -6.464026535    17.634785478    -9.967685783
 H      -10.229042929    15.728300224    -9.122236618
 H       -9.618119618    15.505175737    -6.782229816
 H       -7.957324838    17.335814043   -11.733522554
 H      -10.657186450    15.966267718   -11.085911919
 H       -8.381696830    17.570003277   -13.696570121
 H       -8.993386073    17.801755922   -16.034732415
 H      -12.812624701    15.897245342   -15.183167895
 H      -12.152354750    15.674221525   -12.853447390
 H        1.540377058    19.913760043     0.857163452
 H        2.488310463    20.456723662    -0.540687965
 H       -0.542241091    19.796121743    -0.706177240
 H        0.068797953    21.401319614    -0.329482057
 H        1.241942119    21.573753049    -2.518243512
 H        0.917503036    19.869501991    -2.894301666
 H        2.263252312    -1.029703894    -0.043241022
 H        2.274589725     0.476486178     0.908142411
 H        2.261981508     0.545344626    -0.875664144
 H      -10.615497950    18.277813286   -19.561466904
 H       -9.259593400    17.747663701   -18.534809294
 H      -10.247691254    19.154809171   -18.054990866
 H      -11.674167908    15.499503316   -19.489177989
 C      -10.059688516    14.632682934   -18.321709553
 C      -12.498003731    14.351375292   -17.840427316
 H      -13.864222925    16.972964837   -17.089753255
 C      -13.353142957    19.073865120   -16.914482764
 C      -13.777607588    17.861536289   -19.067073407
 H       -6.182842378    14.498674846    -3.872604692
 C       -7.740669578    13.471650511    -4.987203243
 C       -5.481386223    14.071466410    -5.884600993
 H       -9.435743137    15.863142185    -4.348412161
 C       -8.354639723    16.649121609    -2.636445223
 C       -9.327760166    18.026849487    -4.487187837
 H       -6.075227101    11.839808286    -0.919310711
 C       -5.983014007    13.990807847    -1.190082742
 C       -4.753847246    12.301525323    -2.578559655
 H       -5.058386366    13.905176946     1.841548059
 C       -6.027779699    11.982236790     2.119957902
 C       -3.781786288    12.605608482     3.029172496
 H       -1.783676144    -0.895164352    -1.445546421
 C       -0.298488252    -0.167689321    -2.849473288
 C       -0.198980813    -2.363536128    -1.644682154
 H       -0.105622847    -1.937100978     1.512479986
 C       -0.191459726    -0.230519241     2.854857011
 C       -2.130509811    -1.155576544     1.573980906
 H       -9.254016230    15.220424112   -18.780163458
 H      -10.083014165    13.673164989   -18.857914550
 H       -9.756779158    14.401089767   -17.290303751
 H      -13.523999330    14.728875162   -17.934781317
 H      -12.326994931    14.096170996   -16.785147198
 H      -12.469789255    13.400520676   -18.392448798
 H      -13.025779262    19.037500792   -15.865460836
 H      -14.405396478    19.391595540   -16.896531604
 H      -12.794927806    19.880847408   -17.407298937
 H      -13.784873027    16.916348248   -19.625127859
 H      -13.232235773    18.600850646   -19.668509116
 H      -14.821746336    18.205101966   -19.031491648
 H       -8.528267248    13.644781328    -4.243051627
 H       -7.348197389    12.463413243    -4.788878040
 H       -8.217151955    13.420786913    -5.976424566
 H       -4.607063439    14.737071421    -5.867574826
 H       -5.819429994    14.001148370    -6.928461007
 H       -5.113908312    13.071825014    -5.612418892
 H       -7.973040387    15.679931354    -2.289939214
 H       -9.262946831    16.849454248    -2.050828186
 H       -7.624439638    17.417829655    -2.344155044
 H       -9.628757490    18.108705163    -5.541193067
 H       -8.677991689    18.883294384    -4.260638703
 H      -10.243187692    18.169469413    -3.895765961
 H       -6.416380902    14.277894021    -0.223464557
 H       -6.818466002    13.978562262    -1.906679320
 H       -5.308691479    14.801858887    -1.503180103
 H       -4.270321776    11.317516051    -2.650579275
 H       -4.035979916    13.051878779    -2.938462781
 H       -5.579959374    12.288399160    -3.305490130
 H       -6.822436705    12.155612020     1.383242484
 H       -6.455462322    12.243847042     3.098799080
 H       -5.829627270    10.901588920     2.153732222
 H       -2.861417139    13.199528513     2.945408217
 H       -3.483305633    11.553983667     3.149356171
 H       -4.255168144    12.900843975     3.976087828
 H       -0.648282875     0.874401699    -2.874063277
 H       -0.771119848    -0.669982012    -3.705506722
 H        0.780404119    -0.159215525    -3.053338700
 H       -0.487321163    -2.970876732    -0.777027312
 H        0.886431563    -2.463592410    -1.777322587
 H       -0.660298988    -2.841726513    -2.521040013
 H        0.894085089    -0.102774259     2.954740351
 H       -0.510855200    -0.829809188     3.719499358
 H       -0.655427237     0.758734298     2.978175573
 H       -2.501753263    -1.723215169     0.711432357
 H       -2.701517483    -0.218364358     1.633502763
 H       -2.406562615    -1.737930793     2.465244513

