187   

Si        0.000000000     0.000000000     0.000000000
 C        1.867593832     0.000000000     0.000000000
 C       -0.662758691     1.715453236     0.000000000
 C        0.203746920     2.810582654     0.067337022
 C       -0.300277659     4.109372201     0.067219941
 C       -1.673325726     4.346750094    -0.041971716
 C       -2.539709325     3.249065075    -0.115714203
 C       -2.042002163     1.948725958    -0.080848561
 C       -2.225815245     5.697570068    -0.044503154
 C       -1.469344127     6.803240113     0.056438700
 C       -1.963681101     8.173195106     0.059494610
 C       -1.022909740     9.206485490     0.173756513
 C       -1.428963346    10.535371512     0.182981960
 C       -2.790195911    10.862528998     0.095085016
 C       -3.729874110     9.835605405    -0.016495295
 C       -3.316900620     8.501872686    -0.039989724
Si       -3.251057539    12.638129570     0.113251680
 C       -5.022759660    12.945055336    -0.222954147
 C       -5.797633781    13.723391418     0.544266877
 C       -7.216131344    13.994621518     0.311272248
 C       -7.884151895    14.836606543     1.215392140
 C       -9.224452610    15.134167287     1.053840227
 C       -9.935229386    14.633944683    -0.057145643
 C       -9.272530579    13.786945011    -0.959657513
 C       -7.937294224    13.452414937    -0.753161862
 N      -11.301191551    14.969362534    -0.171679785
 C      -11.621754457    16.411412151    -0.079680588
 C      -12.070254931    14.277428004    -1.216422481
 C      -12.735160211    16.648268008     0.960438312
 C      -12.199356112    16.839728948     2.396401771
 N      -12.617392404    15.849351904     3.410351019
 C      -12.013552852    14.555883545     3.209224990
 C      -10.917726964    14.247612715     4.025649675
 C      -10.280359932    13.019370389     3.892758826
 C      -10.686285477    12.105241728     2.912199753
 C      -11.785420959    12.423499099     2.107097801
 C      -12.466781132    13.622691338     2.271524285
 C      -14.081506059    15.769579282     3.574869661
 C       -9.995720118    10.815386562     2.793901331
 C      -10.337206906     9.900891740     1.877650886
Si       -9.600287132     8.259931393     1.585310694
 C       -7.820710683     8.045798512     1.974801373
 C       -6.935498375     9.108721947     2.179562554
 C       -5.594146618     8.860646383     2.472323725
 C       -5.111864412     7.550536465     2.576240705
 C       -6.001787134     6.491325448     2.369584006
 C       -7.337738239     6.733431207     2.067206442
 C       -3.704297878     7.310272829     2.883475899
 C       -3.174634181     6.079269228     2.987400634
 C       -1.784285543     5.765438149     3.290093686
 C       -0.811343964     6.741197978     3.514161363
 C        0.505506528     6.377536451     3.800172543
 C        0.880126982     5.031114049     3.833716481
 C       -0.093396470     4.050750696     3.597700428
 C       -1.409229613     4.414952512     3.334830759
Si        2.603998874     4.508157306     4.206325906
 C        3.733593487     5.971103522     4.458864155
 C        2.642311608     3.439500977     5.781107062
 C        3.193734986     3.453915980     2.732570356
 C      -10.618222276     6.974718142     2.551544973
 C       -9.800055933     7.948658646    -0.287650501
 C       -2.806750237    13.345691025     1.828339412
 C       -2.231154061    13.535767851    -1.219579536
 C       -0.586764006    -0.966790763    -1.528838167
 C       -0.659794745    -0.840758255     1.575394851
 H        1.289311624     2.692607493     0.137326192
 H        0.393304312     4.945714569     0.147598315
 H       -3.612494042     3.411798808    -0.194806331
 H       -2.765268649     1.130349789    -0.121502484
 H       -3.312454011     5.762038207    -0.133059360
 H       -0.381121793     6.717883923     0.154863327
 H        0.035851742     8.967721481     0.252324600
 H       -0.648623242    11.297936625     0.259042245
 H       -4.803962288    10.035706194    -0.085363050
 H       -4.065468436     7.714797578    -0.124717242
 H       -5.417294924    12.447358930    -1.121399476
 H       -5.418296669    14.231607775     1.442979630
 H       -7.347040713    15.248439100     2.070223478
 H       -9.742952687    15.734990451     1.799466504
 H       -9.791396307    13.378485494    -1.820080165
 H       -7.448015184    12.771228358    -1.450218504
 H      -13.139928628    14.522591075    -1.101761872
 H      -11.970554037    13.185245632    -1.076963526
 H      -11.761925576    14.535467286    -2.242504707
 H      -14.453269736    16.756001958     3.898293769
 H      -14.309196650    15.048263358     4.379086552
 H      -14.634871137    15.465885063     2.674368638
 H      -10.582815774    14.972813785     4.765409556
 H       -9.441948444    12.778054213     4.544556851
 H      -12.124126790    11.727685471     1.340206116
 H      -13.322994147    13.847081113     1.641938907
 H       -9.178374747    10.678393734     3.510325096
 H      -11.175686486    10.099563754     1.183671908
 H       -7.259487720    10.152266538     2.108700587
 H       -4.914105213     9.699858369     2.618945485
 H       -5.655962422     5.461626303     2.443860781
 H       -7.979281627     5.860520648     1.915261088
 H       -3.092893327     8.204982694     3.019067766
 H       -3.805476986     5.195141891     2.839502737
 H       -1.077960766     7.795559514     3.470434276
 H        1.221705052     7.182447507     3.982192311
 H        0.142919942     2.982184780     3.597945671
 H       -2.151314811     3.640276461     3.148423844
 H      -10.717194659    17.001968807     0.185439091
 H      -11.950627575    16.801221211    -1.069753133
 H      -13.320146846    17.537786829     0.664835534
 H      -13.447902072    15.802283225     0.929425791
 H      -11.084680291    16.852016349     2.397562333
 H      -12.515413701    17.835969189     2.781906089
 H        2.264834095    -1.030237552     0.006290539
 H        2.268368053     0.515004796     0.892217503
 H        2.271734908     0.507256788    -0.893671663
 H        4.769469451     5.645382409     4.659104600
 H        3.408762064     6.591060908     5.312996315
 H        3.756702869     6.617132065     3.563107211
 H        3.735653975     3.245863763     5.982757096
 C        2.055218720     4.173571546     7.000871671
 C        1.938611041     2.077400925     5.643306689
 H        2.398587846     2.664811909     2.584559697
 C        3.297254938     4.269978269     1.431103672
 C        4.532323744     2.736165035     2.978272569
 H      -10.263991528     5.962886567     2.201276846
 C      -10.376225273     7.066459383     4.068614529
 C      -12.129998544     7.067265472     2.277938966
 H      -10.904079792     8.029826649    -0.500301481
 C       -9.068211996     9.018375924    -1.119479631
 C       -9.330196797     6.555816654    -0.738577702
 H       -3.208072132    14.400216102     1.836572011
 C       -3.482039290    12.560758685     2.968998668
 C       -1.296413566    13.421026972     2.111736239
 H       -1.148935073    13.374219055    -0.944909284
 C       -2.455945693    12.948160847    -2.624104672
 C       -2.491977537    15.051470001    -1.259411868
 H        0.005088051    -1.928185483    -1.518539245
 C       -2.080554905    -1.336568916    -1.518535961
 C       -0.271800320    -0.227035707    -2.842368767
 H       -1.783294432    -0.852584708     1.465741392
 C       -0.183991141    -2.294342087     1.741205444
 C       -0.320883587    -0.050420349     2.853145669
 H        2.566443563     5.117282592     7.230537263
 H        2.148628426     3.547180989     7.899312756
 H        0.983783666     4.395833198     6.890279973
 H        2.299717276     1.479469784     4.797059844
 H        0.847575915     2.173034952     5.549499428
 H        2.114853936     1.472595561     6.544514664
 H        2.359364145     4.777885634     1.163512055
 H        3.544890553     3.607770441     0.589140106
 H        4.087539093     5.031194575     1.464824534
 H        4.514712625     2.068240844     3.849112423
 H        5.372981728     3.429726303     3.109465136
 H        4.785964444     2.106950553     2.112845398
 H       -9.319877813     6.948097795     4.348806290
 H      -10.923039671     6.266906149     4.587747827
 H      -10.729231399     8.013468451     4.501732644
 H      -12.389962584     6.945647795     1.219020198
 H      -12.569033202     8.013256454     2.625557823
 H      -12.658330340     6.267940259     2.817259198
 H       -9.387741937    10.044999346    -0.888884380
 H       -9.265957456     8.865441363    -2.189142013
 H       -7.975566317     8.978104463    -0.998372693
 H       -9.855538497     5.734111614    -0.236302923
 H       -8.250526251     6.402781661    -0.595388396
 H       -9.517014794     6.426091213    -1.814300626
 H       -4.575004470    12.496327410     2.871415689
 H       -3.286794174    13.052282815     3.932124992
 H       -3.096844066    11.534927437     3.062990262
 H       -0.738020543    13.994927092     1.361768738
 H       -0.828660615    12.430352204     2.197493287
 H       -1.120756412    13.924610934     3.073513830
 H       -2.240386367    11.871771768    -2.684251695
 H       -1.786617873    13.434854325    -3.347682692
 H       -3.477796662    13.104333299    -2.995691988
 H       -2.268468306    15.556446908    -0.310875963
 H       -3.527582962    15.300198866    -1.532484817
 H       -1.851992616    15.523999900    -2.018144134
 H       -2.383792598    -1.906051388    -0.631046266
 H       -2.314039887    -1.972700410    -2.385037083
 H       -2.737887430    -0.460285859    -1.599217010
 H        0.794729974    -0.001190555    -2.971730608
 H       -0.824294748     0.718556298    -2.942514739
 H       -0.561594273    -0.846089689    -3.703273834
 H       -0.444768832    -2.937883861     0.891174298
 H       -0.657891989    -2.747103041     2.624135603
 H        0.899710246    -2.374246641     1.899448138
 H       -0.700438237     0.981966522     2.832161628
 H        0.756868787    -0.007147984     3.058941501
 H       -0.784402238    -0.530915150     3.726325380

