187   

Si        0.000000000     0.000000000     0.000000000
 C        1.865359507     0.000000000     0.000000000
 C       -0.674203789     1.712850610     0.000000000
 C        0.121529320     2.799600553     0.376487157
 C       -0.397877850     4.094005849     0.373437780
 C       -1.723379129     4.331298239     0.000205191
 C       -2.520772882     3.240722774    -0.371981165
 C       -2.005137537     1.947590589    -0.370555486
 C       -2.309174418     5.667566009    -0.017964439
 C       -1.655763363     6.793914645     0.314221097
 C       -2.240557172     8.130518490     0.296394891
 C       -3.565826395     8.368272264    -0.076712408
 C       -4.084926638     9.663244518    -0.079601234
 C       -3.290418647    10.747300516     0.301966788
 C       -1.960108558    10.511201789     0.678778590
 C       -1.442605155     9.219650831     0.672078934
Si       -3.923319523    12.477424151     0.317050459
 C       -3.252955517    13.367366358     1.770048398
 C       -2.949462585    12.744228458     2.916567138
 C       -2.412280678    13.399326271     4.108539879
 C       -2.142813423    12.612681955     5.237672274
 C       -1.633349549    13.174406670     6.396514112
 C       -1.260349119    14.534703173     6.424973701
 C       -1.505688474    15.319085978     5.282041467
 C       -2.100887388    14.760128498     4.157565794
 N       -0.743560677    15.089338578     7.613579194
 C        0.136438460    14.235444293     8.436271141
 C       -0.255065583    16.477359222     7.529755923
 C        1.501268534    13.911522865     7.798523927
 C        1.570005835    12.463829010     7.269541115
 N        2.568836321    12.257229056     6.197887906
 C        2.267532627    13.015762560     5.025709864
 C        1.123529816    12.639356383     4.298473734
 C        0.771904269    13.331378446     3.151422972
 C        1.571266137    14.380355014     2.671881711
 C        2.716717451    14.733925631     3.386597343
 C        3.067327342    14.063687604     4.554684572
 C        3.954002217    12.372345336     6.686897723
 C        1.155075830    15.079957789     1.454887716
 C        1.837332039    16.093948096     0.905863876
Si        1.323440007    16.971188313    -0.612603405
 C       -0.508988239    16.961128167    -0.772178650
 C       -1.290421818    17.002833542     0.389555564
 C       -2.680657488    16.996675124     0.307900340
 C       -3.320362010    16.978716148    -0.935151374
 C       -2.537516027    16.949861370    -2.096062272
 C       -1.146393721    16.939177771    -2.017240754
 C       -4.773323880    16.971738604    -1.063629413
 C       -5.624574219    16.997203928    -0.024219445
 C       -7.078706782    16.990588876    -0.138916583
 C       -7.737473900    16.956327326    -1.370111702
 C       -9.130912129    16.951261195    -1.432013871
 C       -9.894397315    16.965284290    -0.260869131
 C       -9.235114547    16.995303027     0.975880064
 C       -7.844907164    17.010829411     1.034476565
Si      -11.733894127    16.958899442    -0.320849916
 C      -12.364004849    16.591358300    -2.037539382
 C      -12.348666126    15.637720029     0.904502877
 C      -12.402078748    18.654997237     0.224455933
 C        1.919393438    18.772896856    -0.501599281
 C        2.130341261    16.139013315    -2.118932885
 C       -3.373232016    13.392451543    -1.250326620
 C       -5.823427995    12.448416095     0.395574993
 C       -0.652741648    -0.909125474    -1.540163719
 C       -0.622633681    -0.916933202     1.547294475
 H        1.165617480     2.677045755     0.677482510
 H        0.243607584     4.923110863     0.666936709
 H       -3.555966619     3.403427658    -0.665829234
 H       -2.675051993     1.136975926    -0.670316162
 H       -3.356505851     5.703753265    -0.331263839
 H       -0.607922020     6.757558196     0.627182519
 H       -4.206694388     7.540199169    -0.372705366
 H       -5.126494646     9.786197580    -0.387921894
 H       -1.290662946    11.323426571     0.985144332
 H       -0.406807128     9.056200267     0.965168270
 H       -3.129770191    14.452998687     1.647138699
 H       -3.078417191    11.659306713     3.050282865
 H       -2.371113226    11.545753217     5.219705502
 H       -1.518511389    12.556716718     7.282725250
 H       -1.232847652    16.369031927     5.258661291
 H       -2.300526014    15.395366621     3.293043268
 H        0.128212312    16.801378654     8.511423141
 H       -1.102841583    17.141927675     7.281712995
 H        0.542206980    16.621626220     6.782030682
 H        4.117953130    11.598054135     7.456492181
 H        4.208080159    13.351572333     7.118968173
 H        4.651106949    12.158040853     5.857715029
 H        0.510731380    11.809327068     4.648563893
 H       -0.137769832    13.049414362     2.613796744
 H        3.351257114    15.547601737     3.035279101
 H        3.957229211    14.368979914     5.095743613
 H        0.215443510    14.692556043     1.033308555
 H        2.781465409    16.451993851     1.342834580
 H       -0.842899112    17.031057678     1.389808309
 H       -3.267612077    17.014878747     1.224813699
 H       -3.017419598    16.933366032    -3.072351350
 H       -0.586293972    16.910990182    -2.955277274
 H       -5.145089286    16.944496473    -2.091181731
 H       -5.248041894    17.025140453     1.003638017
 H       -7.165913674    16.937725186    -2.296202938
 H       -9.591007673    16.929101172    -2.423648527
 H       -9.781055145    17.005213004     1.923775849
 H       -7.350146491    17.036090108     2.004122683
 H        0.287338829    14.757405676     9.409680525
 H       -0.414102226    13.302912844     8.693085821
 H        1.702969891    14.617718582     6.967554510
 H        2.311023233    14.082831321     8.528580568
 H        1.800230288    11.758523211     8.096477355
 H        0.580286900    12.154376328     6.859630693
 H        2.263449298    -1.029399247    -0.044500511
 H        2.275993048     0.476293087     0.907391296
 H        2.259904424     0.546952942    -0.875739561
 H      -13.467954122    16.554198623    -2.056669504
 H      -11.993592642    15.613452410    -2.395088135
 H      -12.045045908    17.359229848    -2.763925239
 H      -11.989597595    15.969712663     1.922120225
 C      -13.881711597    15.519113349     0.961119882
 C      -11.746487547    14.248745317     0.624012024
 H      -13.522693871    18.591397267     0.106620182
 C      -12.097792098    18.999752702     1.693236551
 C      -11.892844552    19.802814454    -0.666699290
 H        3.041943450    18.725075120    -0.399429447
 C        1.588324691    19.597092337    -1.757747399
 C        1.357907927    19.497341024     0.735331346
 H        1.781768260    16.719777465    -3.021198773
 C        3.668351602    16.190295334    -2.087302393
 C        1.684536728    14.675837392    -2.287969858
 H       -3.752279294    14.452318770    -1.132455214
 C       -1.842194824    13.450617807    -1.390000981
 C       -3.974995887    12.815313884    -2.542266830
 H       -6.155485461    11.834688108    -0.491640442
 C       -6.347021924    11.768878313     1.674310766
 C       -6.470218144    13.835612538     0.274777920
 H       -1.777368549    -0.915420157    -1.442739412
 C       -0.297563249    -0.181032489    -2.849201895
 C       -0.181312428    -2.371141484    -1.635908892
 H       -0.146001273    -1.938854541     1.510624930
 C       -0.185702442    -0.232909781     2.855690134
 C       -2.150309978    -1.103644861     1.574487870
 H      -14.381568468    16.459726649     1.226216017
 H      -14.173424185    14.789242480     1.730458307
 H      -14.318787271    15.162055666     0.019195841
 H      -10.646970356    14.243853499     0.629283831
 H      -12.074942571    13.823516969    -0.333487143
 H      -12.060437179    13.537933318     1.401801943
 H      -12.498312105    18.267202033     2.405348722
 H      -12.558017435    19.963850408     1.955094691
 H      -11.022562826    19.111604460     1.891424216
 H      -12.141150869    19.675138720    -1.728185542
 H      -10.805471587    19.949053993    -0.594822748
 H      -12.351854257    20.752568051    -0.356406338
 H        2.033749748    19.191371996    -2.675168761
 H        1.981308441    20.618769259    -1.652089898
 H        0.507387767    19.702070199    -1.928597751
 H        1.600645801    18.995981675     1.682278245
 H        0.266442158    19.624220559     0.696656734
 H        1.781799369    20.509169931     0.804254543
 H        4.071026609    17.210170414    -2.045533470
 H        4.077684353    15.737527144    -3.002091258
 H        4.097474612    15.624814926    -1.248167256
 H        0.595378457    14.557788312    -2.377628508
 H        2.019845936    14.029190194    -1.463463522
 H        2.116351116    14.252643640    -3.205739362
 H       -1.345751661    13.916754760    -0.526491100
 H       -1.572639743    14.067002486    -2.260818945
 H       -1.386847530    12.464441949    -1.551428464
 H       -5.072470954    12.835180465    -2.556309497
 H       -3.655744441    11.782770754    -2.740221957
 H       -3.646046019    13.409059079    -3.407223034
 H       -5.980559811    10.742292368     1.807601350
 H       -7.443715051    11.703752367     1.644132576
 H       -6.096154769    12.329861284     2.586269886
 H       -6.203984742    14.365373371    -0.650355667
 H       -6.227064544    14.498904882     1.116572823
 H       -7.566311612    13.745528241     0.265294441
 H       -0.651246514     0.859706986    -2.876642734
 H       -0.768956069    -0.688087829    -3.703003153
 H        0.781107478    -0.168604193    -3.054342195
 H       -0.463862143    -2.977060561    -0.765391795
 H        0.904677667    -2.463220603    -1.769472075
 H       -0.639977301    -2.856585034    -2.509624334
 H        0.902941030    -0.134127778     2.954094523
 H       -0.519597376    -0.824913383     3.719856244
 H       -0.623853225     0.767821514     2.981006629
 H       -2.535243456    -1.670297734     0.717290594
 H       -2.696070470    -0.150502746     1.621407468
 H       -2.443812608    -1.668341106     2.471351146

