187   

Si        0.000000000     0.000000000     0.000000000
 C        1.865169533     0.000000000     0.000000000
 C       -0.684985762     1.707327361     0.000000000
 C        0.139368976     2.835808115    -0.035474149
 C       -0.412613339     4.117420601    -0.034424321
 C       -1.797421970     4.296938097    -0.005050851
 C       -2.621529147     3.164783861     0.027903579
 C       -2.073862602     1.886587755     0.031364040
 C       -2.428256124     5.611623525    -0.002529756
 C       -1.770702655     6.782983629    -0.027545616
 C       -2.421317776     8.088847616    -0.024504655
 C       -1.626424024     9.241324657    -0.052424163
 C       -2.207007015    10.507839083    -0.050602037
 C       -3.597212087    10.650404146     0.016319039
 C       -4.393786333     9.499348266     0.058372673
 C       -3.810996259     8.234144634     0.033944935
Si       -4.412486527    12.297910364     0.021712797
 C       -5.807687282    12.363814819     1.200182918
 C       -5.880719292    11.650719969     2.332285665
 C       -7.005912782    11.714558733     3.266724355
 C       -6.979054244    10.924260251     4.422736041
 C       -8.022842289    10.951785360     5.336917896
 C       -9.170574697    11.728099786     5.084363943
 C       -9.203771448    12.515025405     3.914747644
 C       -8.127949917    12.518701460     3.039523920
 N      -10.253071914    11.787253529     5.980846258
 C      -10.242796878    10.913935533     7.161013455
 C      -11.587765557    11.943360397     5.376597519
 C      -10.515650046     9.429886950     6.861018154
 C      -10.401206269     8.611069272     8.159260921
 N      -10.332930596     7.157842096     7.954323330
 C       -9.153157874     6.613694461     7.412545584
 C       -7.983888605     7.381283982     7.244189729
 C       -6.840090267     6.808799947     6.706260387
 C       -6.792551896     5.446708170     6.384668121
 C       -7.944301902     4.678184667     6.584226330
 C       -9.107205601     5.242739047     7.087091520
 C      -11.597361607     6.579273847     7.466402783
 C       -5.561573936     4.891321046     5.819317257
 C       -5.408474578     3.605680125     5.476986939
Si       -3.902746332     2.852382787     4.768916937
 C       -4.360071212     1.886268933     3.270421524
 C       -5.189629490     2.466208226     2.303429042
 C       -5.549500075     1.753665224     1.160067600
 C       -5.100824505     0.444228320     0.965691561
 C       -4.273356794    -0.134968177     1.936328473
 C       -3.903585796     0.577919737     3.073623938
 C       -5.446679299    -0.345314734    -0.210345907
 C       -6.227509736     0.077908024    -1.218369435
 C       -6.565756354    -0.723014482    -2.390003033
 C       -6.097402706    -2.027264222    -2.569731195
 C       -6.444068828    -2.759739199    -3.704530283
 C       -7.261556989    -2.198732877    -4.690626540
 C       -7.730942095    -0.890043387    -4.513950114
 C       -7.388331844    -0.163776721    -3.376767787
Si       -7.728245261    -3.152362693    -6.194355543
 C       -6.697304609    -4.696539436    -6.374973370
 C       -9.562068890    -3.650442405    -6.087972374
 C       -7.492506509    -2.024387717    -7.709545248
 C       -2.626215486     4.171829891     4.264328708
 C       -3.100884787     1.726114705     6.076272276
 C       -3.165243652    13.660448895     0.480197808
 C       -5.082027371    12.654110953    -1.723730479
 C       -0.610581094    -0.946020218    -1.535766956
 C       -0.665811048    -0.867580872     1.558365569
 H        1.228925200     2.755803614    -0.063463127
 H        0.249073532     4.980445882    -0.060184562
 H       -3.705124284     3.279303039     0.056085783
 H       -2.772003839     1.041574023     0.066562943
 H       -3.523297366     5.590773692     0.011178171
 H       -0.678459944     6.810923417    -0.050479184
 H       -0.542763852     9.150232701    -0.087909372
 H       -1.536673027    11.370308874    -0.093541527
 H       -5.486440582     9.551716874     0.117564965
 H       -4.452153564     7.354692070     0.063657990
 H       -6.604302783    13.069649701     0.919072660
 H       -5.098379853    10.943410721     2.641394228
 H       -6.118704614    10.281680939     4.618014730
 H       -7.948300519    10.345774200     6.234676048
 H      -10.063747331    13.141640577     3.700412583
 H       -8.171045907    13.152627394     2.152715360
 H      -12.377781193    11.784497735     6.127690291
 H      -11.763924514    11.251082043     4.536895109
 H      -11.697070649    12.980156077     5.008913120
 H      -12.456733345     7.173513925     7.815665154
 H      -11.716153222     5.564597242     7.888597572
 H      -11.645482032     6.512883383     6.366989197
 H       -7.967244537     8.433281868     7.511254331
 H       -5.958935047     7.432377984     6.547992568
 H       -7.935781179     3.614190873     6.341180487
 H       -9.980287684     4.614380911     7.233243527
 H       -4.764035022     5.637412648     5.703325434
 H       -6.228746432     2.881473053     5.615459905
 H       -5.582135545     3.483036750     2.411888448
 H       -6.195229492     2.224174955     0.421328655
 H       -3.921800356    -1.157175751     1.807241966
 H       -3.244871266     0.077261663     3.789091993
 H       -5.016198734    -1.351474250    -0.227269171
 H       -6.661050566     1.081761451    -1.206640303
 H       -5.454999303    -2.485694546    -1.819957235
 H       -6.049233536    -3.776006940    -3.788298615
 H       -8.371667953    -0.399559440    -5.252271195
 H       -7.763357823     0.850935367    -3.257183835
 H       -9.261120147    11.036523642     7.676586664
 H      -11.004358441    11.305341607     7.875553507
 H      -11.513585198     9.301179025     6.407992524
 H       -9.803928587     9.051805043     6.099713313
 H       -9.504863608     8.921318981     8.746153605
 H      -11.273085436     8.820115731     8.821499637
 H        2.264157029    -1.029200282     0.030742844
 H        2.263562138     0.535573779     0.880295753
 H        2.271493803     0.487133118    -0.903826334
 H       -6.947477356    -5.235196509    -7.306435309
 H       -6.855047699    -5.395005650    -5.534690799
 H       -5.620321226    -4.451379502    -6.413081852
 H       -9.760193878    -4.278558505    -7.004288656
 C       -9.869210771    -4.507811163    -4.846421312
 C      -10.530487025    -2.454435740    -6.113015295
 H       -8.178171989    -1.142196253    -7.547786736
 C       -6.054418485    -1.487346519    -7.825087371
 C       -7.887942141    -2.690943238    -9.039017946
 H       -2.361939061     4.723035982     5.212418458
 C       -1.336113174     3.567771645     3.682419932
 C       -3.181625969     5.191524287     3.255165635
 H       -2.237978659     1.213935338     5.559212311
 C       -2.535361829     2.504515998     7.277831469
 C       -4.060801097     0.641079513     6.597335112
 H       -2.327359709    13.582446512    -0.271217625
 C       -3.754224328    15.079573692     0.386869151
 C       -2.571481411    13.460964850     1.886398137
 H       -5.551435202    13.678739063    -1.673186117
 C       -3.980108794    12.684559874    -2.797073242
 C       -6.169442045    11.652581743    -2.152221299
 H       -0.044099488    -1.921642577    -1.531273603
 C       -2.114618855    -1.273815900    -1.525691126
 C       -0.280393002    -0.206505195    -2.845537762
 H       -1.791506811    -0.817771835     1.470094105
 C       -0.262702288    -2.348613566     1.661437973
 C       -0.267802745    -0.145524333     2.858146537
 H       -9.279443246    -5.432186981    -4.797558016
 H      -10.924292383    -4.817032215    -4.853724543
 H       -9.714886172    -3.964313016    -3.903103255
 H      -10.436527367    -1.836537047    -7.015005201
 H      -10.419486356    -1.796875003    -5.239322294
 H      -11.570091582    -2.812984625    -6.094696679
 H       -5.721193335    -0.943098115    -6.929598581
 H       -5.983479421    -0.775922359    -8.660284217
 H       -5.316502230    -2.274997508    -8.026861321
 H       -8.929484092    -3.036797968    -9.059154636
 H       -7.247079079    -3.544176535    -9.297877231
 H       -7.787647835    -1.970722961    -9.864178550
 H       -0.836173019     2.859757239     4.353239606
 H       -0.607368585     4.365715896     3.477404926
 H       -1.501523765     3.063115595     2.715874863
 H       -4.087826025     5.709120921     3.593710673
 H       -3.399839555     4.737910728     2.276688015
 H       -2.433213264     5.974482870     3.060831187
 H       -1.755740329     3.225783089     6.999956181
 H       -2.069815088     1.809953756     7.991415235
 H       -3.308192316     3.048299159     7.839252510
 H       -4.505653821     0.025955321     5.803802731
 H       -4.885661422     1.055903078     7.193696796
 H       -3.522385274    -0.052151902     7.258916170
 H       -4.119904013    15.334282417    -0.615940050
 H       -2.981189491    15.823323931     0.628686550
 H       -4.575194585    15.249442713     1.097413956
 H       -2.085299239    12.485446502     2.023573192
 H       -3.321428919    13.568800107     2.683838360
 H       -1.801128759    14.219801209     2.082524300
 H       -3.210320584    13.444188576    -2.610258760
 H       -4.416033678    12.923764358    -3.777772118
 H       -3.472024405    11.716726927    -2.916367714
 H       -7.019651761    11.607506300    -1.458134547
 H       -5.783561230    10.630056774    -2.273190125
 H       -6.583371155    11.940812250    -3.128851154
 H       -2.431500723    -1.845553806    -0.645304097
 H       -2.370126173    -1.887192785    -2.402192327
 H       -2.747622035    -0.376508428    -1.593392448
 H        0.790281807    -0.006870727    -2.978197859
 H       -0.810875325     0.752832870    -2.937836392
 H       -0.589890309    -0.812349739    -3.709123251
 H       -0.578328026    -2.946731668     0.796993433
 H       -0.734898673    -2.806692527     2.542396988
 H        0.818744587    -2.489857116     1.785777382
 H       -0.605873318     0.901441945     2.887924844
 H        0.814278920    -0.150482238     3.040211487
 H       -0.729830481    -0.642375548     3.722879766

