187   

Si        0.000000000     0.000000000     0.000000000
 C        1.865026681     0.000000000     0.000000000
 C       -0.668631934     1.715663762     0.000000000
 C        0.011399820     2.736387482    -0.674005319
 C       -0.487521872     4.038376285    -0.679315669
 C       -1.679622309     4.348972548    -0.019368296
 C       -2.363607666     3.324516936     0.647821873
 C       -1.867909913     2.023370292     0.654580771
 C       -2.240648181     5.695057889     0.002996937
 C       -1.691104344     6.766711604    -0.593034061
 C       -2.262289804     8.108648750    -0.563412262
 C       -1.591490253     9.144902784    -1.225656025
 C       -2.102983870    10.440057468    -1.221578207
 C       -3.299230217    10.732367315    -0.551932664
 C       -3.971941939     9.696266592     0.102009830
 C       -3.463337752     8.398268007     0.088481058
Si       -3.946246572    12.454815664    -0.567068473
 C       -5.350063239    12.741123941     0.571985213
 C       -5.566503513    12.098232409     1.727921193
 C       -6.705238929    12.359546974     2.610409697
 C       -6.833525762    11.625188809     3.799676479
 C       -7.894786639    11.839197561     4.664256060
 C       -8.823407086    12.872283325     4.411671855
 C       -8.684651981    13.621714235     3.228490424
 C       -7.656067494    13.344585511     2.336823240
 N       -9.897545591    13.081532052     5.295519535
 C       -9.659026858    12.884128991     6.737885850
 C      -10.786627239    14.219796493     5.008325299
 C       -8.347339382    13.447675463     7.311993485
 C       -8.049343164    14.898278650     6.890379047
 N       -6.683863227    15.349683511     7.254779477
 C       -5.686390615    14.453878020     6.753002962
 C       -5.482186624    14.446629929     5.361836451
 C       -4.532521066    13.604332658     4.806763591
 C       -3.750499394    12.765060281     5.616068780
 C       -3.949140325    12.789629935     6.997350238
 C       -4.902684416    13.627879890     7.567845959
 C       -6.563851612    15.680687764     8.686138239
 C       -2.762324672    11.896039383     4.973877327
 C       -1.955084096    11.050449131     5.628907783
Si       -0.735773270     9.985320041     4.774279502
 C       -0.164899342    10.819486482     3.238702425
 C        0.235078908    12.162074938     3.292057873
 C        0.671162953    12.814672146     2.141967166
 C        0.740766675    12.135875562     0.918457512
 C        0.352767615    10.795091983     0.873886264
 C       -0.095267378    10.140627215     2.019710118
 C        1.202220589    12.850575882    -0.266481867
 C        1.297643135    12.302938893    -1.489904011
 C        1.756601784    13.003000339    -2.683594105
 C        2.150402001    14.343170255    -2.667423364
 C        2.582875469    14.972798860    -3.834484119
 C        2.628927789    14.273683598    -5.044559180
 C        2.229858595    12.930264779    -5.063787833
 C        1.795932332    12.305296025    -3.898450074
Si        3.196851469    15.088624630    -6.593987630
 C        4.009506010    16.731909563    -6.249641659
 C        4.417196698    13.920979143    -7.471357071
 C        1.700830375    15.375059928    -7.736277735
 C        0.740365859     9.641682989     5.916839228
 C       -1.585883307     8.337478967     4.341261286
 C       -2.543687361    13.639976838    -0.056559665
 C       -4.520924878    12.870559960    -2.331913154
 C       -0.631972611    -0.898215994    -1.554770694
 C       -0.642643611    -0.935591859     1.528816667
 H        0.948297600     2.554017056    -1.207945207
 H        0.062932812     4.815418995    -1.206383010
 H       -3.295323245     3.544029015     1.166029744
 H       -2.447961810     1.266092406     1.189164437
 H       -3.178806683     5.788195899     0.558469042
 H       -0.753673365     6.677014206    -1.148695622
 H       -0.666223604     8.934698091    -1.758506168
 H       -1.532820322    11.209474890    -1.753413991
 H       -4.923105244     9.855863572     0.620714540
 H       -4.014318529     7.608580394     0.595610342
 H       -6.040985809    13.526417923     0.225963094
 H       -4.888691702    11.325435453     2.117605289
 H       -6.096432712    10.857332576     4.042607373
 H       -8.002825496    11.213242887     5.545066201
 H       -9.376110907    14.422731373     2.991115897
 H       -7.586997810    13.927501497     1.417365472
 H      -11.636066680    14.216371270     5.712198615
 H      -11.218406546    14.097978596     3.997779537
 H      -10.287885183    15.200429724     5.068264508
 H       -7.239923174    16.525428153     8.905219858
 H       -5.535963744    16.026098008     8.894307473
 H       -6.805277336    14.854791134     9.371268701
 H       -6.078227861    15.099721661     4.726242564
 H       -4.396659677    13.595040454     3.721850163
 H       -3.354508887    12.147026403     7.645782833
 H       -5.039504726    13.622278520     8.644430382
 H       -2.737995085    12.011754583     3.878657696
 H       -1.995509705    10.941586004     6.721107454
 H        0.203840291    12.738906344     4.222103948
 H        0.970151051    13.859149044     2.199199588
 H        0.404280747    10.241149968    -0.062073614
 H       -0.390142244     9.091693248     1.913782800
 H        1.474769454    13.895634518    -0.097694436
 H        1.025612203    11.255318829    -1.652567091
 H        2.124979392    14.909305284    -1.738158928
 H        2.882238239    16.021831963    -3.759697102
 H        2.245079171    12.334927481    -5.981046203
 H        1.488023273    11.261862320    -3.933906861
 H      -10.521169917    13.302692942     7.303751675
 H       -9.685604768    11.780633179     6.917842049
 H       -8.375700082    13.372890708     8.414548159
 H       -7.500847752    12.800009467     6.995936542
 H       -8.134748980    15.001529077     5.782815212
 H       -8.786674860    15.598362548     7.333006286
 H        2.263101900    -1.028990707     0.053121538
 H        2.258369579     0.554992516     0.871485946
 H        2.277390009     0.470516825    -0.909421694
 H        4.383463318    17.193764316    -7.180940205
 H        4.872155866    16.612602426    -5.569113627
 H        3.307796892    17.445370290    -5.783166637
 H        3.841323957    12.972799267    -7.680531136
 C        4.930801762    14.466610712    -8.815632206
 C        5.621424662    13.553864856    -6.585328421
 H        2.100813972    15.941389707    -8.626404905
 C        1.056485313    14.074931320    -8.249390344
 C        0.610138695    16.235926974    -7.072442325
 H        0.316324907     9.125953044     6.826560349
 C        1.783488953     8.706326700     5.279955467
 C        1.443229962    10.928443177     6.385881795
 H       -0.842778322     7.756387124     3.721111810
 C       -1.936937742     7.486689593     5.574924950
 C       -2.859498036     8.540512875     3.500892553
 H       -1.599954642    13.227488458    -0.521685643
 C       -2.726164720    15.082502399    -0.558191384
 C       -2.350571176    13.667201035     1.468759263
 H       -4.869820459    13.942987907    -2.297780926
 C       -3.402117251    12.767029148    -3.383477243
 C       -5.707118804    11.996951654    -2.778416006
 H       -0.166075342    -1.925278688    -1.528471273
 C       -2.161838242    -1.066342300    -1.576424955
 C       -0.191672072    -0.208117388    -2.858741526
 H       -1.768899093    -0.915948613     1.454740757
 C       -0.202783762    -2.410237411     1.573931090
 C       -0.242367838    -0.255636668     2.850865439
 H        4.127845905    14.687218514    -9.530797529
 H        5.577504027    13.720836883    -9.300555710
 H        5.539096734    15.374137164    -8.705134681
 H        5.332132433    13.102904802    -5.625291708
 H        6.270349773    14.411974152    -6.365405899
 H        6.252091515    12.811571677    -7.095101931
 H        1.751522005    13.433489095    -8.805806863
 H        0.236460427    14.311334702    -8.943225416
 H        0.611211510    13.473003453    -7.444761752
 H        0.968934373    17.221054042    -6.747641394
 H        0.150281664    15.745689380    -6.202235616
 H       -0.205193168    16.425943164    -7.785132264
 H        1.375714677     7.727505873     4.994995379
 H        2.594971151     8.504820318     5.993788656
 H        2.260253646     9.140088855     4.389119774
 H        0.770393588    11.634526695     6.890893415
 H        1.938102579    11.466887678     5.564956256
 H        2.232822585    10.683362037     7.110340866
 H       -1.065195020     7.227218785     6.188660321
 H       -2.379899137     6.531629669     5.256508129
 H       -2.677422464     7.966193373     6.229006165
 H       -2.684364735     9.094154433     2.565171236
 H       -3.654662260     9.063843827     4.050565392
 H       -3.272601068     7.566313511     3.204455345
 H       -2.786132207    15.160226444    -1.651064515
 H       -1.861883467    15.693157362    -0.257870695
 H       -3.612082735    15.574500832    -0.136019069
 H       -2.111509514    12.677498110     1.888485111
 H       -3.219836866    14.068940165     2.006897486
 H       -1.500709969    14.314717187     1.729775953
 H       -2.518065859    13.375051252    -3.147955667
 H       -3.768425942    13.122231675    -4.357307436
 H       -3.063303361    11.733586287    -3.543479688
 H       -6.575613299    12.063831567    -2.109129779
 H       -5.443888203    10.933611871    -2.871230864
 H       -6.056781954    12.314143119    -3.770896225
 H       -2.548463532    -1.644183162    -0.727348723
 H       -2.467638097    -1.610375336    -2.481885522
 H       -2.697348571    -0.106482680    -1.600745483
 H        0.897632273    -0.120972630    -2.959856195
 H       -0.620564830     0.797689922    -2.975027576
 H       -0.534623569    -0.789823714    -3.726499775
 H       -0.517847225    -2.985090696     0.693477498
 H       -0.654037336    -2.909698569     2.443618487
 H        0.883364058    -2.530590583     1.681012634
 H       -0.560936172     0.794307948     2.915774824
 H        0.840006093    -0.283007320     3.035344743
 H       -0.713256993    -0.773181441     3.698745793

