187   

Si        0.000000000     0.000000000     0.000000000
 C        1.864803468     0.000000000     0.000000000
 C       -0.682593289     1.708765616     0.000000000
 C        0.136823405     2.818492418    -0.228185266
 C       -0.396432418     4.107837897    -0.224895167
 C       -1.760809321     4.312330476    -0.008923653
 C       -2.581810624     3.198212985     0.212959142
 C       -2.052226300     1.912182471     0.218786353
 C       -2.371750945     5.635649340     0.005165825
 C       -1.720328167     6.796137291    -0.182337209
 C       -2.368687777     8.103242840    -0.160861066
 C       -3.740974452     8.246276208     0.060564340
 C       -4.332476821     9.508214983     0.075498297
 C       -3.563533216    10.653841626    -0.146398202
 C       -2.186626463    10.514553497    -0.369683853
 C       -1.596720606     9.253373589    -0.369885369
Si       -4.314686533    12.332962862    -0.132998616
 C       -3.700561635    13.294296086    -1.563797955
 C       -3.349139254    12.711800034    -2.718062584
 C       -2.852529036    13.427023974    -3.893486529
 C       -2.522324321    12.682532445    -5.036467339
 C       -2.047545338    13.302572522    -6.179101625
 C       -1.856492583    14.700332736    -6.200552017
 C       -2.186995932    15.448255903    -5.059057263
 C       -2.693879871    14.813627803    -3.929899144
 N       -1.370170991    15.285223636    -7.390138417
 C       -0.178634340    14.641425690    -7.978842799
 C       -1.344765873    16.754792006    -7.446082934
 C        0.932219163    14.255294817    -6.984345682
 C        1.527731595    15.495625768    -6.297517743
 N        2.592300271    15.255793325    -5.312595588
 C        2.183715865    15.012627430    -3.965632450
 C        0.948495938    14.476426369    -3.583654989
 C        0.658879011    14.282894765    -2.236219673
 C        1.568839816    14.664346418    -1.243258411
 C        2.794005624    15.220227201    -1.633695653
 C        3.105246554    15.391816310    -2.973299064
 C        3.633553035    14.316461769    -5.769948076
 C        1.235023309    14.447409659     0.168423992
 C        2.052176165    14.784971138     1.175094903
Si        1.728122477    14.556491791     2.958032110
 C        0.655675571    13.105147108     3.301560558
 C        0.915650226    11.901773133     2.633597638
 C        0.125477547    10.778326734     2.866366636
 C       -0.927441434    10.822837598     3.785500546
 C       -1.180860888    12.025309552     4.457284586
 C       -0.401549357    13.155184555     4.216616537
 C       -1.777334716     9.668540335     4.057217289
 C       -1.627685355     8.468015784     3.473185689
 C       -2.463466290     7.300859790     3.728158042
 C       -3.532147454     7.309023520     4.627338471
 C       -4.298593370     6.160899645     4.831444701
 C       -3.992548103     4.972388265     4.161452761
 C       -2.904124466     4.954976698     3.279524985
 C       -2.144177610     6.102212112     3.077128333
Si       -4.982082554     3.441039727     4.407444462
 C       -6.553813542     3.773526745     5.353260821
 C       -5.369622676     2.726231711     2.685184479
 C       -3.942648297     2.159363244     5.356062840
 C        3.399774244    14.284586094     3.829758974
 C        0.959363652    16.158669552     3.641546519
 C       -6.212106495    12.234130834    -0.216333668
 C       -3.827807368    13.221303182     1.471712906
 C       -0.620178293    -0.935276646    -1.536026526
 C       -0.652229167    -0.878567941     1.558727205
 H        1.210311815     2.718236663    -0.408293904
 H        0.262759829     4.955879718    -0.398200580
 H       -3.651057299     3.340089423     0.372580764
 H       -2.740897439     1.082206647     0.400900712
 H       -3.451320642     5.633213134     0.194176325
 H       -0.644403121     6.814251818    -0.370571451
 H       -4.362206857     7.369856937     0.237304260
 H       -5.407283965     9.555373143     0.270286785
 H       -1.537631237    11.379241597    -0.546928808
 H       -0.525846475     9.163633078    -0.539845168
 H       -3.655983002    14.383488214    -1.426446775
 H       -3.394087563    11.622594800    -2.868801130
 H       -2.648263161    11.598946109    -5.029722308
 H       -1.828035427    12.713730782    -7.065517141
 H       -2.044826890    16.524077372    -5.038546547
 H       -2.951863149    15.414817006    -3.056771198
 H       -1.113660876    17.074313869    -8.476915887
 H       -0.618698402    17.225895384    -6.764488353
 H       -2.353165385    17.142891439    -7.211729167
 H        3.985890003    14.622789545    -6.768516467
 H        3.296544361    13.268794144    -5.814853927
 H        4.496561705    14.369406207    -5.083386672
 H        0.208333808    14.195260399    -4.331553336
 H       -0.300007526    13.838797284    -1.959267544
 H        3.518825338    15.527911381    -0.879950017
 H        4.055598739    15.832869520    -3.266969676
 H        0.259508171    13.966367588     0.322705228
 H        3.020964720    15.272995818     0.974434628
 H        1.725938067    11.806552814     1.902831538
 H        0.335691533     9.858702463     2.322511123
 H       -1.995800697    12.081234878     5.175984844
 H       -0.647561991    14.064858473     4.770080517
 H       -2.569754645     9.839258659     4.789822996
 H       -0.837390872     8.305897398     2.731951187
 H       -3.785889288     8.220112495     5.165146041
 H       -5.133221677     6.230981240     5.533084721
 H       -2.609754966     4.054410105     2.729141815
 H       -1.294502980     6.065482595     2.395084819
 H       -0.534902798    13.722562198    -8.504273567
 H        0.235379761    15.302911145    -8.770951162
 H        0.541744981    13.548093996    -6.226717616
 H        1.720875315    13.700392580    -7.525323661
 H        1.967743308    16.172177413    -7.068790807
 H        0.720024038    16.076375578    -5.793560491
 H        2.262313591    -1.029239710     0.055654476
 H        2.261913760     0.555897306     0.868702130
 H        2.274123351     0.465215079    -0.913844561
 H       -7.154627921     2.853897375     5.466322649
 H       -7.181899171     4.517549626     4.831077757
 H       -6.345811773     4.160764958     6.366196348
 H       -4.365666707     2.476959046     2.228989612
 C       -6.197964922     1.430548142     2.726267764
 C       -6.069379049     3.743263841     1.765749803
 H       -4.628869937     1.281942822     5.533683181
 C       -2.717320379     1.655018640     4.573276261
 C       -3.471561792     2.682311878     6.725474562
 H        4.014731123    15.205599966     3.614928668
 C        3.264744717    14.143857070     5.355801726
 C        4.162551630    13.065466699     3.281624421
 H        0.759210807    15.965521611     4.734973370
 C        1.903002648    17.371269577     3.540388459
 C       -0.375012748    16.516600071     2.963916100
 H       -6.528707903    11.592553684     0.656292817
 C       -6.901752040    13.602856544    -0.070477956
 C       -6.711175195    11.567053722    -1.511063875
 H       -4.427798119    14.176142175     1.498320615
 C       -4.167645860    12.404430626     2.730435860
 C       -2.337307141    13.593586491     1.503371401
 H       -0.114518746    -1.943618649    -1.501758459
 C       -2.141813433    -1.166988517    -1.549118340
 C       -0.215923176    -0.243139573    -2.850625772
 H       -1.778097830    -0.818989939     1.500588394
 C       -0.262339630    -2.365039571     1.634989392
 C       -0.208388695    -0.176803942     2.854949796
 H       -5.722442174     0.629199678     3.306619529
 H       -6.331418555     1.036852179     1.708207621
 H       -7.207382068     1.579675827     3.130882515
 H       -5.506552140     4.680801697     1.647871811
 H       -7.077322596     4.008716121     2.111101889
 H       -6.191891390     3.321832032     0.757965264
 H       -2.974553910     1.182834251     3.615998753
 H       -2.186561862     0.890885025     5.159386650
 H       -1.983829247     2.449162045     4.370804816
 H       -4.294417249     2.993133570     7.381613657
 H       -2.775636339     3.529871420     6.641437967
 H       -2.930416269     1.892232274     7.265290072
 H        2.809445732    15.019268495     5.836276165
 H        4.257796879    14.024624122     5.812641671
 H        2.682959763    13.259679015     5.654106131
 H        4.330919733    13.106115281     2.197004314
 H        3.660963834    12.113168028     3.506443612
 H        5.157120593    13.003904396     3.745872534
 H        2.849295841    17.234510114     4.079006231
 H        1.425341325    18.256565477     3.984622250
 H        2.142297520    17.641466561     2.502458683
 H       -1.139723417    15.733496470     3.062405952
 H       -0.263767611    16.736711108     1.891978991
 H       -0.801002348    17.420524615     3.421301603
 H       -6.671668986    14.108466775     0.875914463
 H       -7.993903675    13.476933791    -0.091109679
 H       -6.657799572    14.293941947    -0.889051053
 H       -6.302482874    10.560544063    -1.673964953
 H       -6.486310487    12.160932413    -2.409075693
 H       -7.803884705    11.454605641    -1.481420483
 H       -5.228148286    12.137057662     2.809942805
 H       -3.925244816    12.985700336     3.631469385
 H       -3.582060900    11.473472350     2.802636157
 H       -2.020608007    14.220173570     0.659633203
 H       -1.676441098    12.712495944     1.542891889
 H       -2.116883207    14.166353134     2.417222184
 H       -2.507398421    -1.717523320    -0.673113155
 H       -2.421249967    -1.768237661    -2.426700001
 H       -2.714616125    -0.232112604    -1.625795577
 H        0.868366770    -0.111675287    -2.959698342
 H       -0.684570530     0.743628798    -2.975404650
 H       -0.539674448    -0.847911442    -3.709916085
 H       -0.611321611    -2.951233579     0.775118058
 H       -0.714689472    -2.826614887     2.524900975
 H        0.820747508    -2.520475412     1.726865610
 H       -0.489615615     0.886101502     2.892363236
 H        0.874404846    -0.238107238     3.026449389
 H       -0.685118492    -0.653668237     3.723407240

