187   

Si        0.000000000     0.000000000     0.000000000
 C        1.865972469     0.000000000     0.000000000
 C       -0.673450540     1.711766351     0.000000000
 C        0.145940751     2.801145903     0.311343829
 C       -0.368918935     4.095977337     0.309986296
 C       -1.703270333     4.334516200    -0.030377379
 C       -2.522261220     3.242995600    -0.344992503
 C       -2.017568978     1.945451059    -0.319351551
 C       -2.275254069     5.676610724    -0.042302307
 C       -1.579197035     6.782764137     0.268221821
 C       -2.109620356     8.139595862     0.269293359
 C       -1.243905734     9.185249329     0.619833207
 C       -1.693113726    10.500697344     0.638717992
 C       -3.015184175    10.803755681     0.285308378
 C       -3.877786817     9.764556582    -0.073470050
 C       -3.427285254     8.443694968    -0.079231296
Si       -3.562129671    12.555723535     0.325529254
 C       -5.287973080    12.737428100    -0.249972380
 C       -5.694193074    13.615881987    -1.175378048
 C       -7.079596305    13.754079317    -1.630111436
 C       -7.366488956    14.718209249    -2.608588679
 C       -8.658999066    14.893890443    -3.077023072
 C       -9.700077547    14.096048990    -2.571794745
 C       -9.418485691    13.121643438    -1.605716585
 C       -8.115378100    12.947784824    -1.151770009
 N      -11.005524758    14.335808227    -3.103468515
 C      -11.596091564    15.606334633    -2.608251479
 C      -11.923506477    13.188103386    -3.008191625
 C      -11.247495122    15.982695447    -1.153604168
 C      -12.456976366    16.300270226    -0.259648246
 N      -13.300984852    15.149617491     0.121895406
 C      -12.642365511    13.975591029     0.528743717
 C      -11.489174023    14.063304450     1.339852137
 C      -10.827601259    12.916596829     1.750026055
 C      -11.291849923    11.643398830     1.389400714
 C      -12.454209852    11.560040080     0.618500308
 C      -13.139968152    12.697347236     0.214146404
 C      -14.487120540    14.984588644    -0.733531630
 C      -10.570190413    10.448557622     1.838790618
 C      -10.967653857     9.208846393     1.524800349
Si      -10.228138530     7.601911102     1.971908642
 C       -8.411069984     7.527896457     2.225775549
 C       -7.549996800     8.609244856     2.015033868
 C       -6.178798985     8.471849065     2.230786393
 C       -5.637034856     7.253627690     2.656999364
 C       -6.501358609     6.173944032     2.865222147
 C       -7.870222947     6.307468700     2.653398145
 C       -4.198629557     7.136598899     2.875387551
 C       -3.593857300     6.008432741     3.285688148
 C       -2.162469140     5.852979301     3.514521373
 C       -1.249482267     6.893471052     3.324086668
 C        0.110711104     6.697026637     3.555919810
 C        0.591741304     5.442598972     3.950759928
 C       -0.319524676     4.395581232     4.129381901
 C       -1.680458989     4.600820856     3.917357010
Si        2.394945395     5.223383773     4.247219963
 C        3.368658772     6.007106192     2.861234786
 C        2.849812532     6.048539357     5.900751898
 C        2.824641273     3.372938354     4.379454774
 C      -11.068614914     6.984494776     3.564781944
 C      -10.686711285     6.443339044     0.525177192
 C       -3.495795031    13.106477801     2.148658264
 C       -2.412889406    13.657860037    -0.714324060
 C       -0.663934428    -0.918759426    -1.526921734
 C       -0.610068533    -0.888554834     1.570385914
 H        1.203999181     2.681364017     0.561024797
 H        0.284695422     4.925190791     0.579438125
 H       -3.566073448     3.408154784    -0.605160378
 H       -2.705172584     1.131725581    -0.563301351
 H       -3.331012754     5.732772192    -0.318767475
 H       -0.523994233     6.708071377     0.554928024
 H       -0.210721071     8.966441124     0.882952589
 H       -0.977671488    11.272728155     0.935690888
 H       -4.915144624     9.945964108    -0.371482010
 H       -4.116854571     7.646956525    -0.355457566
 H       -6.003475520    12.060278331     0.245535847
 H       -5.007823503    14.307028210    -1.682555743
 H       -6.565414751    15.339497590    -3.007578074
 H       -8.877179913    15.636621606    -3.841458423
 H      -10.214517851    12.502380268    -1.193651283
 H       -7.913088483    12.178196492    -0.405352458
 H      -12.802332397    13.388349626    -3.643621616
 H      -12.267559563    12.960992618    -1.987672782
 H      -11.425438893    12.290316368    -3.415922785
 H      -14.947382663    15.968226402    -0.927188872
 H      -15.243069648    14.385606419    -0.192280484
 H      -14.275254726    14.500882846    -1.700822221
 H      -11.119567278    15.036788468     1.651438986
 H       -9.933542383    13.010322168     2.368732064
 H      -12.850708367    10.583608296     0.332408820
 H      -14.054192800    12.579455037    -0.358294441
 H       -9.685927164    10.663454076     2.448289512
 H      -11.882560367     9.064722677     0.918471303
 H       -7.917735467     9.580162650     1.671001298
 H       -5.520264903     9.324264842     2.061918354
 H       -6.108547900     5.214043356     3.196430157
 H       -8.491003064     5.426519324     2.843485699
 H       -3.622326610     8.044912957     2.674720418
 H       -4.179603576     5.102612198     3.473329578
 H       -1.600457234     7.873065927     2.999218905
 H        0.774402758     7.552930091     3.405470113
 H       -0.003464772     3.394926670     4.435389185
 H       -2.373485460     3.773406955     4.056568850
 H      -11.218422862    16.400137845    -3.295566851
 H      -12.694877197    15.575304036    -2.753923837
 H      -10.649141427    15.175328644    -0.679366518
 H      -10.566650692    16.856059991    -1.156270209
 H      -12.094091607    16.758260454     0.693860244
 H      -13.094475045    17.073593839    -0.741195974
 H        2.262977837    -1.030029124    -0.031265534
 H        2.276454877     0.488425590     0.901481887
 H        2.261025807     0.534546515    -0.882987564
 H        4.453849880     5.871380458     3.011493758
 H        3.174574637     7.090997928     2.786274355
 H        3.107402385     5.552421207     1.888022529
 H        3.962613911     5.907101754     6.019107974
 C        2.558983992     7.560198897     5.920113559
 C        2.153081043     5.397101197     7.109059620
 H        2.169843645     2.962625990     5.202686373
 C        2.517009218     2.587614678     3.092029090
 C        4.290303936     3.115364161     4.775612155
 H      -10.689367319     5.934956268     3.730215232
 C      -10.677834376     7.830959491     4.789157181
 C      -12.602600037     6.926648945     3.461739344
 H      -11.804625409     6.537206629     0.404420425
 C      -10.022399936     6.891915180    -0.789458315
 C      -10.364139260     4.959403870     0.764565947
 H       -2.412467425    13.027782191     2.453381825
 C       -3.947926660    14.562165517     2.353562716
 C       -4.316687377    12.188571519     3.072422236
 H       -2.935259604    14.657388931    -0.780148001
 C       -1.023413929    13.904905668    -0.101106727
 C       -2.232817511    13.115260027    -2.144021481
 H       -1.788462383    -0.913902592    -1.426901328
 C       -0.306744074    -0.206793745    -2.844369864
 C       -0.205331567    -2.385715717    -1.608633030
 H       -0.103145793    -1.895787437     1.570252782
 C       -0.207560685    -0.148426517     2.859830852
 C       -2.131696030    -1.119883189     1.591986890
 H        3.076602778     8.114357167     5.127123778
 H        2.898841029     7.995848738     6.870812934
 H        1.485623948     7.787970852     5.845589065
 H        2.387650947     4.331333909     7.225307730
 H        1.058480550     5.496486703     7.075139122
 H        2.476741479     5.885961151     8.039303032
 H        1.465983636     2.669681832     2.775177898
 H        2.708222015     1.516401472     3.249369132
 H        3.145652654     2.892661046     2.244961539
 H        4.568394999     3.569362523     5.735423949
 H        5.006914943     3.465498569     4.021209664
 H        4.465024961     2.035433772     4.887682846
 H       -9.593622025     7.862481028     4.967530707
 H      -11.125865208     7.407528813     5.699206830
 H      -11.033736603     8.869023631     4.723811072
 H      -12.960929994     6.282948392     2.648570657
 H      -13.059329779     7.917959094     3.332211232
 H      -13.025444947     6.513672502     4.389055903
 H      -10.259059488     7.928397514    -1.068839564
 H      -10.367297589     6.261598169    -1.620982845
 H       -8.926782825     6.799065731    -0.767582891
 H      -10.818883007     4.553753028     1.676878599
 H       -9.284125270     4.760055450     0.806256726
 H      -10.752358914     4.353280137    -0.067073655
 H       -3.356590467    15.287721322     1.780215823
 H       -3.839994931    14.845462605     3.410298783
 H       -5.005520002    14.721279347     2.098732649
 H       -4.006956987    11.134650276     3.023333045
 H       -5.396195634    12.233221304     2.873804114
 H       -4.184144470    12.494984367     4.119964288
 H       -1.060176485    14.321270008     0.913409954
 H       -0.470903772    14.634627476    -0.711508938
 H       -0.400122842    13.001211628    -0.073470983
 H       -3.180354103    12.968758873    -2.681386800
 H       -1.691941632    12.158169253    -2.171655781
 H       -1.642261488    13.820351077    -2.745557088
 H       -0.653814222     0.836016576    -2.881286678
 H       -0.784023674    -0.719185625    -3.691696958
 H        0.771342293    -0.203851535    -3.052410737
 H       -0.488207875    -2.979298570    -0.729786709
 H        0.879143110    -2.488265298    -1.746626983
 H       -0.672536118    -2.877061328    -2.474501670
 H        0.877139265    -0.017743893     2.966471223
 H       -0.536064310    -0.719318041     3.739706784
 H       -0.674100800     0.844255738     2.944009299
 H       -2.494916044    -1.712291088     0.742844609
 H       -2.704764253    -0.182038045     1.618757060
 H       -2.414257249    -1.677922034     2.496246718

