187   

Si        0.000000000     0.000000000     0.000000000
 C        1.865097848     0.000000000     0.000000000
 C       -0.674476976     1.713020226     0.000000000
 C        0.075142864     2.773543679    -0.520089794
 C       -0.435992203     4.071032197    -0.519970508
 C       -1.708394444     4.337702316    -0.007311453
 C       -2.460839748     3.273315080     0.506620618
 C       -1.953406420     1.976745861     0.507444145
 C       -2.284202923     5.678256102     0.013762558
 C       -1.671315999     6.782207031    -0.446261925
 C       -2.247791407     8.122502959    -0.424850451
 C       -3.520377149     8.387057180     0.088255037
 C       -4.033188250     9.684027679     0.089199911
 C       -3.289702115    10.742408779    -0.441776660
 C       -2.014717131    10.479569822    -0.961141154
 C       -1.499981256     9.186279337    -0.947308389
Si       -3.933510665    12.465843030    -0.457738350
 C       -3.427204193    13.355859618    -1.972353318
 C       -3.214635232    12.758441326    -3.152863082
 C       -2.809385503    13.459899635    -4.371288127
 C       -2.618365109    12.719320453    -5.546380024
 C       -2.234831407    13.333219060    -6.727538545
 C       -2.079402452    14.735124999    -6.787587246
 C       -2.273479335    15.479792464    -5.607520846
 C       -2.608888602    14.842084815    -4.420513411
 N       -1.690093737    15.353999272    -7.988080367
 C       -2.078991863    14.695301158    -9.247463485
 C       -1.812735437    16.821361370    -8.050088797
 C       -3.603408788    14.620846096    -9.445135051
 C       -4.003445193    14.287994584   -10.891675749
 N       -3.539892972    15.241124848   -11.926559218
 C       -3.517836662    16.598702301   -11.532258690
 C       -4.703017753    17.152011539   -11.002565963
 C       -4.734783998    18.476421551   -10.601434579
 C       -3.607764044    19.301959671   -10.741467430
 C       -2.445198934    18.756734274   -11.288996086
 C       -2.394643006    17.425768134   -11.690045487
 C       -2.375701598    14.756750311   -12.685652865
 C       -3.697643924    20.695139146   -10.300302293
 C       -2.691807741    21.576353548   -10.382708133
Si       -2.806273477    23.316271948    -9.830990599
 C       -4.515086958    23.977164412    -9.990218154
 C       -5.341144879    23.524887260   -11.027655152
 C       -6.637146538    24.015084048   -11.162154467
 C       -7.135567974    24.977662713   -10.274185337
 C       -6.306014444    25.433516101    -9.245975523
 C       -5.008796651    24.941277412    -9.105633629
 C       -8.500391059    25.460092510   -10.456857130
 C       -9.100674529    26.374967486    -9.676819850
 C      -10.465930552    26.855933417    -9.861529335
 C      -11.293271567    26.398612384   -10.890282449
 C      -12.592826583    26.885522859   -11.030484542
 C      -13.091298641    27.847567635   -10.146571548
 C      -12.262970288    28.308740037    -9.114184018
 C      -10.968461301    27.816655267    -8.973454657
Si      -14.804056334    28.500192107   -10.318171652
 C      -15.562740740    28.015470950   -11.951924963
 C      -15.889939636    27.812740616    -8.914099916
 C      -14.738387881    30.396007333   -10.160235773
 C       -2.226981411    23.416342541    -8.021517875
 C       -1.642148060    24.366397985   -10.907580276
 C       -5.832858226    12.468870340    -0.347896672
 C       -3.235340570    13.393718358     1.049238249
 C       -0.630438572    -0.907013282    -1.549806038
 C       -0.646469329    -0.922391341     1.535221647
 H        1.076826149     2.627266240    -0.933723480
 H        0.169659294     4.879521809    -0.925408368
 H       -3.454647173     3.458604876     0.909809890
 H       -2.587939867     1.187282026     0.919535699
 H       -3.288036724     5.737718099     0.444420829
 H       -0.667330375     6.722831826    -0.876751575
 H       -4.122690683     7.578711065     0.498180132
 H       -5.030434369     9.829784874     0.512925074
 H       -1.389543331    11.270234086    -1.390489534
 H       -0.506403486     9.001737778    -1.351471579
 H       -3.321897345    14.444407556    -1.854669519
 H       -3.321587951    11.673243594    -3.295663417
 H       -2.760436385    11.637780777    -5.530592093
 H       -2.059185082    12.723308610    -7.608348002
 H       -2.152678262    16.558397232    -5.606407518
 H       -2.734741468    15.440685025    -3.517153562
 H       -1.580324757    17.185448139    -9.066995137
 H       -1.071538042    17.273178623    -7.366617614
 H       -2.818327245    17.190199811    -7.788054533
 H       -2.613032457    13.763754153   -13.107173744
 H       -1.448563060    14.673695497   -12.097692898
 H       -2.193720744    15.427749065   -13.544613612
 H       -5.592945790    16.532676398   -10.916900443
 H       -5.655133010    18.886661287   -10.182738803
 H       -1.557407995    19.378623504   -11.412095404
 H       -1.472361909    17.037247741   -12.109981684
 H       -4.685799730    20.957432666    -9.895602344
 H       -1.709119442    21.286553567   -10.784509065
 H       -5.003441925    22.778515785   -11.754820690
 H       -7.267007851    23.646706812   -11.969864410
 H       -6.668212289    26.181542848    -8.543260458
 H       -4.407450503    25.336601121    -8.282470553
 H       -9.032791741    25.015680138   -11.303066979
 H       -8.569196487    26.820189449    -8.830692090
 H      -10.928247259    25.653121407   -11.594429537
 H      -13.192759516    26.488712306   -11.854118971
 H      -12.598342004    29.060691734    -8.394213366
 H      -10.340733821    28.185871362    -8.164626168
 H       -1.603301403    15.259503189   -10.082610277
 H       -1.627528847    13.678887534    -9.275571830
 H       -4.035299175    13.865207004    -8.759618213
 H       -4.063582155    15.581593058    -9.136015026
 H       -3.655585196    13.265339577   -11.154133178
 H       -5.118218665    14.262349732   -10.964191908
 H        2.263246387    -1.028522815     0.061427310
 H        2.258734393     0.561539920     0.867064264
 H        2.277030352     0.462033493    -0.913995921
 H      -16.575284501    28.443035576   -12.062940653
 H      -15.652045165    26.919599195   -12.052525558
 H      -14.953065100    28.383666550   -12.797008206
 H      -16.929760677    28.202206865    -9.115296478
 C      -15.948241161    26.274132637    -8.913146465
 C      -15.466123946    28.290520852    -7.513658541
 H      -14.315436677    30.606489596    -9.134918679
 C      -13.801359894    31.041355642   -11.197237418
 C      -16.120537653    31.067402611   -10.246710753
 H       -2.255477906    24.509312657    -7.743165807
 C       -3.162297717    22.652807277    -7.066872396
 C       -0.787031665    22.912404042    -7.817222432
 H       -0.609850093    23.933937766   -10.766248060
 C       -1.996339578    24.279622829   -12.402988546
 C       -1.602781335    25.845975970   -10.487626503
 H       -6.092083268    11.934843358     0.611433903
 C       -6.434015375    13.884295949    -0.279509267
 C       -6.487353908    11.706614622    -1.514131130
 H       -3.662055933    14.436800207     0.997801293
 C       -3.657125517    12.769823429     2.390917930
 C       -1.700499533    13.503177668     1.008790300
 H       -0.166146384    -1.934638826    -1.516814458
 C       -2.160494600    -1.074354047    -1.574340569
 C       -0.186465608    -0.225222382    -2.856957907
 H       -1.771817827    -0.923241307     1.446861531
 C       -0.181943015    -2.388035008     1.610363093
 C       -0.276237899    -0.211927126     2.849775790
 H      -16.322118048    25.850711162    -9.854206149
 H      -16.631316836    25.923423530    -8.126220340
 H      -14.973752368    25.809941127    -8.703563480
 H      -15.475877957    29.382251420    -7.403629274
 H      -14.469125122    27.930106348    -7.223647521
 H      -16.163362865    27.900543110    -6.757694252
 H      -12.774905977    30.649358308   -11.157642945
 H      -13.724027754    32.122628058   -11.014344766
 H      -14.159125116    30.927372290   -12.229079010
 H      -16.827952845    30.706384349    -9.489045924
 H      -16.593887813    30.947702756   -11.230256201
 H      -16.022158427    32.150570243   -10.083434822
 H       -4.205537994    22.995677040    -7.110208806
 H       -2.836080253    22.792292645    -6.026646770
 H       -3.164094747    21.567973606    -7.247483610
 H       -0.044859832    23.459612018    -8.412320319
 H       -0.673381969    21.842100058    -8.039450514
 H       -0.490329157    23.040715149    -6.766116454
 H       -1.987736404    23.253586416   -12.795224415
 H       -1.263324675    24.843135842   -12.997644417
 H       -2.979018757    24.715364264   -12.635126853
 H       -1.262698650    25.997365741    -9.455233026
 H       -2.574701447    26.348481466   -10.597214854
 H       -0.899323167    26.399721494   -11.126399167
 H       -6.075755204    14.469487083     0.576926498
 H       -7.526685184    13.823317462    -0.172959278
 H       -6.247376354    14.471695933    -1.189535847
 H       -6.151800814    10.663871283    -1.599246613
 H       -6.314728988    12.187980520    -2.487939374
 H       -7.577082685    11.669583430    -1.377260935
 H       -4.744545458    12.743327969     2.536512963
 H       -3.250176409    13.359900825     3.224845605
 H       -3.276688998    11.747138906     2.526124079
 H       -1.321464926    13.988261841     0.098794453
 H       -1.200810260    12.527780148     1.098171565
 H       -1.343147830    14.109278960     1.853244954
 H       -2.549429891    -1.647447012    -0.723162396
 H       -2.464149242    -1.623426386    -2.477466246
 H       -2.695056841    -0.114202669    -1.606043787
 H        0.903460069    -0.146847375    -2.959123411
 H       -0.606819856     0.783736700    -2.976666807
 H       -0.534637280    -0.807217414    -3.722341028
 H       -0.476008274    -2.982472040     0.735714748
 H       -0.635404858    -2.880904453     2.482677111
 H        0.904650595    -2.487874960     1.732821793
 H       -0.621410186     0.830998454     2.892592938
 H        0.804217245    -0.209963343     3.046403352
 H       -0.744340464    -0.725899391     3.701321588

