187   

Si        0.000000000     0.000000000     0.000000000
 C        1.865390085     0.000000000     0.000000000
 C       -0.675088871     1.712558444     0.000000000
 C        0.129528714     2.801807339     0.349572834
 C       -0.389366919     4.096148575     0.347117442
 C       -1.722218352     4.330985410    -0.000822824
 C       -2.528246469     3.238373190    -0.346394173
 C       -2.013665610     1.944748908    -0.343754387
 C       -2.305844631     5.668152829    -0.016701993
 C       -1.637949013     6.791650568     0.294884072
 C       -2.213362341     8.131309473     0.281584359
 C       -1.396381568     9.215617050     0.630660226
 C       -1.900149147    10.512741695     0.632756464
 C       -3.231642816    10.760923827     0.274261397
 C       -4.045577524     9.681281683    -0.082490024
 C       -3.539384401     8.381275178    -0.080934624
Si       -3.876703250    12.484804944     0.284151273
 C       -5.448996555    12.585533474    -0.647346440
 C       -5.713290105    13.485017164    -1.604159088
 C       -6.972205864    13.563521968    -2.348050763
 C       -7.109265806    14.561333567    -3.326031891
 C       -8.275445197    14.685804106    -4.062047679
 C       -9.365711585    13.827160955    -3.813044625
 C       -9.233063592    12.829269177    -2.834491331
 C       -8.043292662    12.695419956    -2.126200978
 N      -10.535857191    13.997350882    -4.595098796
 C      -11.081547100    15.374989434    -4.603596523
 C      -11.569857163    12.962951097    -4.427103891
 C      -11.051828221    16.072696886    -3.230138394
 C      -12.308976827    16.896509532    -2.904267272
 N      -13.580915997    16.150659510    -2.770371859
 C      -13.509310789    14.876484868    -2.178166896
 C      -12.697522840    14.701305775    -1.035018484
 C      -12.604694834    13.461863776    -0.428274379
 C      -13.366241542    12.374318709    -0.883769858
 C      -14.203206996    12.560068819    -1.984635697
 C      -14.287359904    13.792743611    -2.622995675
 C      -14.466217092    16.291799359    -3.937422909
 C      -13.223209579    11.089958601    -0.200146985
 C      -13.886749415     9.973253246    -0.529075979
Si      -13.652418633     8.400702279     0.377321369
 C      -11.930960920     8.348074843     1.027096460
 C      -10.893368966     8.779647861     0.186998938
 C       -9.574509315     8.760861720     0.627561013
 C       -9.257428525     8.304346230     1.914571304
 C      -10.291768161     7.871271647     2.747133414
 C      -11.616673994     7.891443627     2.308953100
 C       -7.858713636     8.306161795     2.325003538
 C       -7.404674983     7.901932003     3.523488945
 C       -5.997283360     7.914601580     3.907935271
 C       -4.997552531     8.357877058     3.038256532
 C       -3.661778674     8.359512127     3.430479627
 C       -3.293227086     7.918543083     4.706313900
 C       -4.292497513     7.478327579     5.581105986
 C       -5.629402917     7.479944862     5.186794931
Si       -1.509584732     7.948427024     5.156772559
 C       -0.496102041     7.191395071     3.786426406
 C       -0.990041668     9.763886911     5.408377879
 C       -1.214115438     7.002955314     6.780867943
 C      -14.919491838     8.283033729     1.788931268
 C      -13.926520381     6.948353831    -0.817338639
 C       -4.197444484    12.942776389     2.105931036
 C       -2.615236347    13.710749043    -0.440952317
 C       -0.655606466    -0.907596815    -1.539411337
 C       -0.619653816    -0.913741659     1.550231990
 H        1.179421096     2.680757316     0.629843923
 H        0.258567216     4.926586742     0.621681945
 H       -3.570379697     3.399035132    -0.617393369
 H       -2.690442947     1.131488792    -0.620244512
 H       -3.361684070     5.705663689    -0.300737269
 H       -0.583320702     6.748638790     0.582612703
 H       -0.355803439     9.045161508     0.900037182
 H       -1.216773067    11.317605021     0.919899622
 H       -5.088105295     9.815557791    -0.386084301
 H       -4.191268737     7.556924857    -0.366100780
 H       -6.203865573    11.841462110    -0.345306882
 H       -4.985630416    14.244533111    -1.921487484
 H       -6.281727619    15.243631675    -3.520284452
 H       -8.353488872    15.443482135    -4.837263716
 H      -10.057593099    12.157301967    -2.609755927
 H       -7.960908963    11.908473876    -1.374944313
 H      -12.370668168    13.123629338    -5.167302379
 H      -12.027038158    12.943827686    -3.422280185
 H      -11.129650625    11.971967317    -4.638219257
 H      -14.511640377    17.351868443    -4.240913046
 H      -15.494633465    16.004691460    -3.648923174
 H      -14.162253488    15.690672685    -4.808832444
 H      -12.146262156    15.545175941    -0.626995325
 H      -11.944939517    13.335970258     0.432645078
 H      -14.809513201    11.731656085    -2.353286003
 H      -14.949033127    13.894874813    -3.476213082
 H      -12.494293276    11.124786966     0.624788572
 H      -14.618954133     9.952045446    -1.346860752
 H      -11.083544745     9.148649278    -0.827392763
 H       -8.782393553     9.103580863    -0.036430695
 H      -10.070743931     7.512347334     3.750436674
 H      -12.383367393     7.538700206     3.003636721
 H       -7.162551997     8.674717269     1.563955498
 H       -8.090791512     7.532285676     4.288973136
 H       -5.252054866     8.698016950     2.033986150
 H       -2.925913212     8.714078833     2.697389732
 H       -4.063970880     7.125697391     6.589856852
 H       -6.391950602     7.134645366     5.881201307
 H      -10.480568315    15.955589623    -5.340769579
 H      -12.114818561    15.347597704    -5.008665021
 H      -10.877505607    15.315783424    -2.436184725
 H      -10.166201295    16.735523219    -3.169723548
 H      -12.152469324    17.420502059    -1.928358006
 H      -12.434965149    17.698914025    -3.663637945
 H        2.263224013    -1.029432526    -0.047338014
 H        2.275532658     0.473248971     0.909166425
 H        2.260828355     0.549059624    -0.873898774
 H        0.582068505     7.219502282     4.017649803
 H       -0.655601468     7.718323413     2.828371745
 H       -0.780860410     6.133501229     3.630969319
 H        0.112771392     9.736720891     5.642167615
 C       -1.189382194    10.632059403     4.152552318
 C       -1.714858880    10.437207756     6.588265872
 H       -1.923520878     7.451302636     7.535531017
 C       -1.534191630     5.501480985     6.658539806
 C        0.215443798     7.159773381     7.331633592
 H      -14.690623012     7.320845004     2.332458198
 C      -14.790952554     9.443846357     2.791942155
 C      -16.375751742     8.213575371     1.294794005
 H      -14.991027630     7.041540554    -1.179950113
 C      -12.998929131     7.010436116    -2.044483948
 C      -13.769351391     5.574929261    -0.141653142
 H       -3.186049093    12.913395843     2.607109862
 C       -4.776827018    14.358326316     2.271570579
 C       -5.110334583    11.939574170     2.829979808
 H       -3.194140497    14.666702681    -0.608874425
 C       -1.430790219    14.051610711     0.480779072
 C       -2.067505178    13.239872924    -1.800518939
 H       -1.780615753    -0.904438006    -1.445288390
 C       -0.291441312    -0.184898251    -2.849002446
 C       -0.195244406    -2.373345344    -1.630697333
 H       -0.131691995    -1.930609433     1.522224024
 C       -0.195262262    -0.216076903     2.855706236
 C       -2.145265147    -1.116718366     1.573686833
 H       -0.677122416    10.241006880     3.263801478
 H       -0.787418977    11.640243100     4.324304239
 H       -2.250572494    10.765277377     3.891689969
 H       -1.550846725     9.930476983     7.547568719
 H       -2.800721936    10.514003823     6.433322108
 H       -1.348971880    11.465644903     6.717862013
 H       -2.548952129     5.297048432     6.289379435
 H       -1.461198524     5.018700977     7.643087778
 H       -0.833595579     4.969168707     6.000433651
 H        0.490492943     8.202854113     7.534358685
 H        0.979645990     6.735288202     6.667427240
 H        0.309795303     6.626468493     8.288579002
 H      -13.789078379     9.534129082     3.233556063
 H      -15.485518590     9.297093063     3.630883327
 H      -15.043266257    10.418661124     2.349205570
 H      -16.573721231     7.354841981     0.640881159
 H      -16.690474422     9.121565867     0.761962748
 H      -17.057967489     8.109293559     2.151052962
 H      -13.084552575     7.947971012    -2.610394455
 H      -13.249252668     6.202308835    -2.746372678
 H      -11.939372560     6.872586518    -1.785048589
 H      -14.464621317     5.417409533     0.692920148
 H      -12.751445994     5.396429823     0.233834147
 H      -13.972775738     4.773220179    -0.866215163
 H       -4.142779561    15.145107204     1.844100072
 H       -4.885378107    14.597410782     3.339379941
 H       -5.778403333    14.463571036     1.830743437
 H       -4.713078222    10.913285702     2.833383439
 H       -6.128507956    11.903544098     2.420296689
 H       -5.216608616    12.220163422     3.887950779
 H       -1.738408579    14.444565007     1.458491240
 H       -0.811618613    14.834199224     0.018087315
 H       -0.760178754    13.200454840     0.656562953
 H       -2.852158558    13.045264592    -2.545408843
 H       -1.458974334    12.327562702    -1.723409450
 H       -1.414994117    14.010189069    -2.234714975
 H       -0.640451829     0.857237825    -2.880876827
 H       -0.761795594    -0.692167424    -3.703346941
 H        0.787996555    -0.177997034    -3.050074417
 H       -0.482358434    -2.974720718    -0.758491285
 H        0.890043878    -2.473839210    -1.763847718
 H       -0.657407196    -2.857976340    -2.503093691
 H        0.891672798    -0.102537605     2.956639239
 H       -0.523839877    -0.807182723     3.722565209
 H       -0.646994342     0.779655060     2.973790335
 H       -2.522183722    -1.688295812     0.716190205
 H       -2.701148014    -0.169234983     1.618648367
 H       -2.434961986    -1.683539860     2.470495275

