187   

Si        0.000000000     0.000000000     0.000000000
 C        1.865107825     0.000000000     0.000000000
 C       -0.681800929     1.708635310     0.000000000
 C        0.125919381     2.810868930     0.296467238
 C       -0.405155250     4.100850440     0.292586539
 C       -1.750515833     4.315300292    -0.014580249
 C       -2.559638868     3.209486494    -0.309659481
 C       -2.034916901     1.921028307    -0.297522925
 C       -2.354427132     5.640978560    -0.032745198
 C       -1.715210023     6.792262690     0.235229128
 C       -2.362114240     8.100097296     0.204843321
 C       -3.716451038     8.244179013    -0.111364481
 C       -4.312844440     9.501953766    -0.134308561
 C       -3.565843330    10.643631265     0.176511106
 C       -2.212157129    10.505154711     0.504039933
 C       -1.618691461     9.244319072     0.519469215
Si       -4.376018308    12.291141049     0.138996835
 C       -3.167508639    13.622115633    -0.174804024
 C       -3.040872193    14.744956166     0.544626082
 C       -2.059632325    15.794073105     0.265695514
 C       -2.022443734    16.926263386     1.090869566
 C       -1.112926282    17.948509309     0.870435526
 C       -0.160795758    17.845513710    -0.166681825
 C       -0.192482971    16.702500261    -0.992770932
 C       -1.139308187    15.710054349    -0.783322166
 N        0.763928599    18.868150795    -0.402280584
 C        0.991531569    19.883233199     0.634090679
 C        1.940505441    18.544790442    -1.221359338
 C        1.588861590    19.353825261     1.948509356
 C        3.106554881    19.132914097     1.832777404
 N        3.721674716    18.590868214     3.051949761
 C        3.429506277    17.264670379     3.417564174
 C        2.806779468    16.365436928     2.528507457
 C        2.532902133    15.063295468     2.922275456
 C        2.906345379    14.594896465     4.188730658
 C        3.550300329    15.480992431     5.058632034
 C        3.816755301    16.790316681     4.687308454
 C        3.799749691    19.571524843     4.149016746
 C        2.599039870    13.213678954     4.566381284
 C        2.919511758    12.684876056     5.755136128
Si        2.569729535    10.976292590     6.294647432
 C        1.057039444    10.257480412     5.541566513
 C       -0.015910227    11.074467772     5.164899524
 C       -1.158212173    10.517826994     4.594571548
 C       -1.267145971     9.133282078     4.414819028
 C       -0.198552770     8.319563112     4.802335932
 C        0.952934394     8.874354762     5.356734766
 C       -2.478448981     8.586955576     3.814177256
 C       -2.681689497     7.279598583     3.579826037
 C       -3.887269260     6.721024709     2.980392946
 C       -4.967273354     7.515209387     2.585636969
 C       -6.101796124     6.940529065     2.016147580
 C       -6.167763400     5.557842666     1.807986502
 C       -5.082860007     4.761189258     2.191793054
 C       -3.955930498     5.337816129     2.771805851
Si       -7.679275717     4.830005165     1.054166353
 C       -9.219837222     5.627776377     1.735886163
 C       -7.572483205     5.134423301    -0.825021357
 C       -7.717602577     2.950419951     1.347330561
 C        4.077794877     9.895491979     5.865997401
 C        2.347724884    10.992163323     8.185176774
 C       -5.683991306    12.326820635    -1.243526052
 C       -5.256165821    12.530086814     1.810909078
 C       -0.655931574    -0.907323118    -1.539750951
 C       -0.619248868    -0.915542383     1.550302437
 H        1.186916963     2.703522840     0.536541785
 H        0.241648354     4.943615404     0.529690806
 H       -3.612572667     3.357873679    -0.546354429
 H       -2.713603664     1.096444606    -0.531981033
 H       -3.422305706     5.647514203    -0.280155454
 H       -0.654606904     6.803497950     0.496352908
 H       -4.320932498     7.366814059    -0.341611820
 H       -5.372955507     9.549641736    -0.397237633
 H       -1.586144448    11.366138651     0.758183164
 H       -0.567138959     9.150596706     0.784855755
 H       -2.524030584    13.431980820    -1.049556837
 H       -3.670391899    14.965652424     1.416841906
 H       -2.727897018    17.014082599     1.918171647
 H       -1.138961231    18.822400653     1.513125392
 H        0.512073563    16.589485829    -1.809708754
 H       -1.150466767    14.842747084    -1.445951362
 H        2.659575571    19.379515923    -1.223991292
 H        1.617867271    18.396682100    -2.269790469
 H        2.465349420    17.633720942    -0.884626788
 H        3.860080408    20.596979325     3.750911308
 H        4.728480981    19.395170959     4.722576360
 H        2.941376537    19.518010481     4.838783984
 H        2.510653556    16.683108472     1.533084642
 H        2.020998735    14.395689886     2.226423039
 H        3.855837097    15.143553544     6.050304454
 H        4.328959403    17.442791301     5.386797382
 H        2.070410754    12.651921130     3.784629402
 H        3.459743028    13.279423073     6.510116951
 H        0.011441870    12.161533721     5.293065925
 H       -1.975550181    11.169439450     4.288789590
 H       -0.256713186     7.240566901     4.670657885
 H        1.756575279     8.187382623     5.635036518
 H       -3.237574691     9.327703940     3.546897220
 H       -1.916936186     6.540556880     3.837577106
 H       -4.927888883     8.595348043     2.722475674
 H       -6.921295183     7.610285280     1.741870655
 H       -5.076107017     3.677210350     2.050273384
 H       -3.117947060     4.703905021     3.058289752
 H        1.640127662    20.682217626     0.208117999
 H        0.012802574    20.381348744     0.840342735
 H        1.371887480    20.061896538     2.769035854
 H        1.091402852    18.405926768     2.243271722
 H        3.341552710    18.442542736     0.990368968
 H        3.619539642    20.090600735     1.586345683
 H        2.263087495    -1.029691405    -0.040145971
 H        2.274848847     0.480065008     0.905852655
 H        2.260193748     0.543247283    -0.877780422
 H      -10.128826606     5.184181791     1.293184126
 H       -9.245491306     6.713052823     1.536272341
 H       -9.281854761     5.489759205     2.831041295
 H       -8.508896921     4.684134527    -1.261835541
 C       -7.546935132     6.630316048    -1.189227080
 C       -6.358787965     4.448793865    -1.479111670
 H       -6.744136886     2.549571050     0.938658651
 C       -7.791430526     2.583820272     2.840801914
 C       -8.863599016     2.239052922     0.605021641
 H        3.871336401     8.878343663     6.307587393
 C        4.261358076     9.730204010     4.346634221
 C        5.391298579    10.418594837     6.474151937
 H        3.304587074    11.412061759     8.609542382
 C        1.187957039    11.903964375     8.624853753
 C        2.134889075     9.589900599     8.781364600
 H       -6.443070858    11.534940146    -0.979106674
 C       -6.418927162    13.675260418    -1.338404711
 C       -5.094741237    11.977386177    -2.621678413
 H       -5.685351022    13.572355489     1.790284663
 C       -6.414784300    11.540943115     2.033131337
 C       -4.287022050    12.429679330     3.003359042
 H       -1.780251726    -0.913952969    -1.439438171
 C       -0.304990576    -0.176519006    -2.848439662
 C       -0.183778635    -2.368801991    -1.638958050
 H       -0.133901297    -1.933435446     1.519339907
 C       -0.190204927    -0.220513130     2.855751918
 C       -2.145376235    -1.115215063     1.578736910
 H       -8.424900999     7.180678408    -0.828262979
 H       -7.538966474     6.750558052    -2.282177704
 H       -6.649651693     7.145867076    -0.816089074
 H       -6.345175767     3.360488489    -1.338911438
 H       -5.399776839     4.848077644    -1.118684030
 H       -6.372225343     4.616947843    -2.565849157
 H       -6.987948570     3.032226590     3.442441298
 H       -7.700183153     1.495682101     2.967347397
 H       -8.745809146     2.868670002     3.303526937
 H       -8.830072880     2.379382442    -0.483061427
 H       -9.858128496     2.549691147     0.951381615
 H       -8.805136466     1.154266934     0.775897962
 H        3.381054938     9.305374158     3.844336245
 H        5.095363955     9.045597465     4.138866763
 H        4.504880602    10.676087043     3.841100687
 H        5.364361742    10.497363960     7.568262709
 H        5.685649771    11.399083623     6.073747234
 H        6.215096478     9.730385996     6.236326402
 H        1.295600861    12.942444964     8.283050344
 H        1.133923164    11.943661510     9.721836285
 H        0.207668935    11.542343393     8.282052983
 H        2.969667854     8.903771160     8.590374326
 H        1.215182614     9.106855745     8.420797122
 H        2.036449722     9.656628857     9.874483239
 H       -6.941530542    13.952453256    -0.414010490
 H       -7.186334057    13.631863459    -2.124228167
 H       -5.752369542    14.508025423    -1.605697076
 H       -4.589052743    11.001349026    -2.643859671
 H       -4.380971549    12.729219459    -2.985206722
 H       -5.895813339    11.925610089    -3.372415415
 H       -7.213117865    11.632777730     1.286096483
 H       -6.886995138    11.728373243     3.008346514
 H       -6.086809985    10.491424841     2.047429046
 H       -3.440953097    13.128288261     2.941722493
 H       -3.873080877    11.417880492     3.124757069
 H       -4.813783865    12.664038195     3.938987735
 H       -0.662305629     0.863035445    -2.873676452
 H       -0.776242772    -0.683941978    -3.702106486
 H        0.773320156    -0.160268916    -3.055251915
 H       -0.461543975    -2.975646902    -0.767565843
 H        0.901736287    -2.459508497    -1.777632213
 H       -0.646073058    -2.853853892    -2.510976177
 H        0.897329778    -0.109550063     2.953896056
 H       -0.517610254    -0.812298657     3.722537157
 H       -0.639018129     0.776094029     2.975828679
 H       -2.527570341    -1.676261517     0.716708972
 H       -2.698356090    -0.166857783     1.637775165
 H       -2.431272791    -1.692547984     2.470044268

