187   

Si        0.000000000     0.000000000     0.000000000
 C        1.865728425     0.000000000     0.000000000
 C       -0.672870042     1.713046772     0.000000000
 C        0.162431008     2.814481650    -0.209025239
 C       -0.357508071     4.108364182    -0.207094270
 C       -1.723817043     4.330348915    -0.016529794
 C       -2.560921510     3.224635292     0.185188760
 C       -2.043250761     1.932443941     0.195650157
 C       -2.309920310     5.665952966    -0.007178312
 C       -1.616560323     6.804689683    -0.176921048
 C       -2.199795707     8.141853757    -0.168087807
 C       -1.356033131     9.243869995    -0.358090797
 C       -1.865673532    10.540165635    -0.357834724
 C       -3.235200619    10.762163648    -0.175641829
 C       -4.080258452     9.662407092     0.016550421
 C       -3.565547303     8.367163052     0.026239991
Si       -3.948527629    12.459542259    -0.168771980
 C       -5.643747208    12.338443517    -0.837541362
 C       -6.774985886    12.828345108    -0.315812998
 C       -8.088813384    12.669315025    -0.944669821
 C       -9.213595476    13.221563705    -0.315427461
 C      -10.476508930    13.098599133    -0.869195473
 C      -10.650344070    12.496161669    -2.131795450
 C       -9.521652434    11.957378745    -2.773734512
 C       -8.270805850    12.022761549    -2.169249866
 N      -11.951223259    12.385735201    -2.669315839
 C      -12.833675405    13.555796799    -2.508067552
 C      -12.064855922    11.773705563    -4.003848943
 C      -12.367606622    14.806357848    -3.280603560
 C      -13.255900695    16.027081184    -2.965920115
 N      -12.691619712    16.975296030    -1.975754524
 C      -12.359644569    16.352662762    -0.739511665
 C      -13.413043532    15.778040212    -0.001297264
 C      -13.155040708    15.157090300     1.209961902
 C      -11.854871134    15.114500708     1.735024857
 C      -10.820893825    15.716744687     1.014049440
 C      -11.066170693    16.348005724    -0.200476087
 C      -11.641239858    17.828661921    -2.560191101
 C      -11.632665848    14.446477716     3.019029664
 C      -10.433657726    14.350027593     3.606579617
Si      -10.083630795    13.533504126     5.203044961
 C       -8.665116689    12.391233096     4.941942360
 C       -8.511064526    11.757431984     3.701177616
 C       -7.445436005    10.889170978     3.480878641
 C       -6.523363766    10.614372963     4.500033750
 C       -6.689212006    11.238942579     5.739527359
 C       -7.748978324    12.117778919     5.960950278
 C       -5.419608620     9.697981286     4.228524927
 C       -4.473995325     9.371836147     5.125862319
 C       -3.361460673     8.461068876     4.883987436
 C       -3.159270328     7.816670607     3.661022208
 C       -2.077891686     6.954712207     3.483294157
 C       -1.172247829     6.721013804     4.524854518
 C       -1.375088420     7.364583968     5.751455565
 C       -2.458782532     8.220594245     5.928311116
Si        0.248112980     5.578469632     4.266088607
 C        0.937820137     5.787100167     2.547765604
 C        1.609236066     5.912632531     5.553597780
 C       -0.362425217     3.788464128     4.487708957
 C       -9.636364602    14.864588826     6.483667814
 C      -11.577356234    12.540529881     5.827471189
 C       -3.839314397    13.252901130     1.550106694
 C       -2.948105100    13.564097069    -1.359761568
 C       -0.618287693    -0.942240278    -1.531450242
 C       -0.645858976    -0.866392670     1.567829926
 H        1.238053270     2.704086462    -0.371894172
 H        0.316142544     4.947555474    -0.374930032
 H       -3.628353972     3.374822752     0.337290788
 H       -2.743509435     1.109103660     0.362947691
 H       -3.392372200     5.690050112     0.150170002
 H       -0.534595682     6.780241560    -0.338219191
 H       -0.288693467     9.089547157    -0.502448918
 H       -1.159545985    11.361959727    -0.501946459
 H       -5.159073279     9.779880833     0.166468233
 H       -4.241565851     7.527961068     0.179403320
 H       -5.662383397    11.786628234    -1.794764820
 H       -6.804214581    13.387224478     0.628099660
 H       -9.102179345    13.721840973     0.648411446
 H      -11.338707454    13.484577104    -0.325875407
 H       -9.608009452    11.479457469    -3.743619771
 H       -7.418247029    11.573832811    -2.680655791
 H      -13.128847998    11.692255051    -4.283256893
 H      -11.665862629    10.743706389    -3.963946473
 H      -11.538996674    12.330356071    -4.795498352
 H      -12.073432428    18.391475073    -3.405697324
 H      -10.758099761    17.279792277    -2.923272550
 H      -11.316808825    18.573043066    -1.811917587
 H      -14.429477428    15.831594599    -0.384339823
 H      -13.977181297    14.705197055     1.764765217
 H       -9.803810175    15.715193229     1.410290961
 H      -10.237575130    16.802096067    -0.736822566
 H      -12.547509447    14.026864588     3.455412132
 H       -9.533957031    14.789671980     3.142608425
 H       -9.207029225    11.927030332     2.871560755
 H       -7.334794372    10.413281072     2.506650748
 H       -5.988589629    11.042674141     6.548900808
 H       -7.825108458    12.576123259     6.950104532
 H       -5.405216956     9.275373432     3.219622372
 H       -4.497122847     9.799567884     6.133278179
 H       -3.839743338     7.993217029     2.828890200
 H       -1.968125843     6.483236707     2.499754502
 H       -0.703654089     7.219300829     6.601412210
 H       -2.600669255     8.709892029     6.889562146
 H      -13.857427060    13.261804071    -2.830393844
 H      -12.914850243    13.785612792    -1.419074726
 H      -11.310892666    15.022612750    -3.027007650
 H      -12.373289452    14.601780058    -4.365274998
 H      -13.464972194    16.595596386    -3.899106652
 H      -14.250389299    15.700735118    -2.586640898
 H        2.262313944    -1.028953239     0.065402627
 H        2.262860642     0.563414995     0.863978347
 H        2.275592121     0.455347023    -0.918400944
 H        1.771449924     5.088986883     2.360053409
 H        1.313858676     6.814643969     2.395879920
 H        0.158922331     5.597334849     1.785969525
 H        1.122007933     5.788346781     6.563942449
 C        2.780890321     4.916315096     5.473349040
 C        2.168168468     7.345057507     5.469684639
 H        0.505027092     3.128521415     4.197272742
 C       -0.755844048     3.455198551     5.938246469
 C       -1.546824790     3.452249839     3.566073880
 H       -9.413091416    14.312276325     7.442187296
 C       -8.380279929    15.663438491     6.090958984
 C      -10.788849659    15.846409131     6.759085906
 H      -12.441596209    13.264995935     5.864712311
 C      -11.955924659    11.388926372     4.878116932
 C      -11.373722935    11.968965025     7.241970675
 H       -4.263943578    14.292701906     1.433325399
 C       -4.664347925    12.519932669     2.616455280
 C       -2.390220013    13.379808302     2.057317597
 H       -1.905974784    13.619534737    -0.932165256
 C       -2.850682248    12.973429440    -2.777595074
 C       -3.500593364    14.997335925    -1.454323925
 H       -0.111505807    -1.949983679    -1.492004758
 C       -2.139491884    -1.176470153    -1.544867381
 C       -0.213870037    -0.256282809    -2.849379355
 H       -1.771406969    -0.797405833     1.517145486
 C       -0.267380464    -2.355657777     1.649100808
 C       -0.186967457    -0.161349432     2.857296867
 H        2.471557172     3.871430028     5.607097316
 H        3.507778032     5.126286513     6.270875753
 H        3.334835845     4.982360739     4.527662586
 H        1.394306048     8.121276523     5.551914237
 H        2.723312580     7.532229784     4.540787171
 H        2.873532157     7.524177669     6.293145788
 H        0.065534904     3.584420708     6.653876394
 H       -1.064606138     2.402575113     6.011424112
 H       -1.608439037     4.050057330     6.295110707
 H       -1.301768052     3.541972469     2.496662501
 H       -2.432940690     4.073683715     3.757148583
 H       -1.865497594     2.411615509     3.719455968
 H       -7.499274880    15.031322452     5.910896340
 H       -8.103268837    16.351877526     6.902040190
 H       -8.531301691    16.285481308     5.198055174
 H      -11.699016570    15.356955421     7.129104872
 H      -11.065732288    16.440474404     5.876503527
 H      -10.491787124    16.567929291     7.533765337
 H      -12.151170037    11.713108029     3.846463169
 H      -12.875145281    10.898438907     5.227507507
 H      -11.186642345    10.603879499     4.834441037
 H      -11.200124523    12.740026193     8.003344556
 H      -10.544690669    11.249051126     7.298077002
 H      -12.273671839    11.422314736     7.559467082
 H       -5.728651562    12.419747112     2.361842617
 H       -4.632322256    13.068487009     3.568989661
 H       -4.279095818    11.512836664     2.836678221
 H       -1.746085611    13.980806537     1.404425076
 H       -1.904437246    12.404116760     2.206550977
 H       -2.380095963    13.876094391     3.038887836
 H       -2.437930275    11.955254339    -2.799590202
 H       -2.183178193    13.588771619    -3.397237129
 H       -3.818350559    12.950007286    -3.297268642
 H       -3.504097363    15.526401892    -0.492659682
 H       -4.521635768    15.036579589    -1.859910297
 H       -2.877143465    15.597428343    -2.132225612
 H       -2.505190036    -1.722255712    -0.665878760
 H       -2.417547326    -1.782905328    -2.419298495
 H       -2.713900905    -0.243123030    -1.626637614
 H        0.870395110    -0.125617610    -2.959128583
 H       -0.682279477     0.729965411    -2.978819097
 H       -0.537797279    -0.865002808    -3.705779269
 H       -0.630359456    -2.943892449     0.796487243
 H       -0.714583622    -2.807762688     2.546458503
 H        0.815182749    -2.519574979     1.730959021
 H       -0.441126120     0.909350514     2.883988156
 H        0.893663275    -0.247668483     3.031144613
 H       -0.678290561    -0.614813484     3.729716530

