187   

Si        0.000000000     0.000000000     0.000000000
 C        1.865216034     0.000000000     0.000000000
 C       -0.675120875     1.712684593     0.000000000
 C        0.112243364     2.794007225     0.408774384
 C       -0.404922440     4.089224271     0.406549346
 C       -1.719912355     4.333128947     0.001728372
 C       -2.509209322     3.248074887    -0.402260667
 C       -1.995928532     1.953935465    -0.400998462
 C       -2.302670434     5.670761327    -0.016729748
 C       -1.655851243     6.791900509     0.344853111
 C       -2.237705639     8.129915863     0.326745262
 C       -1.446251476     9.213502853     0.731450229
 C       -1.957691276    10.508349214     0.731078447
 C       -3.277671426    10.749506192     0.328889665
 C       -4.069260374     9.670276801    -0.076602511
 C       -3.551856070     8.375239973    -0.080119865
Si       -3.954302753    12.460498772     0.328128622
 C       -5.776741442    12.409453992     0.206741506
 C       -6.525136892    13.106136615    -0.658467627
 C       -7.985767453    13.036071627    -0.722631992
 C       -8.660868067    13.814847303    -1.673897782
 C      -10.041571217    13.785150464    -1.776059687
 C      -10.800959460    12.921420184    -0.956323575
 C      -10.123572575    12.136222771    -0.004162220
 C       -8.742343211    12.216013039     0.118497476
 N      -12.201464283    12.903937220    -1.073015965
 C      -12.761197442    13.105440292    -2.421315957
 C      -12.926684535    11.885554732    -0.296298524
 C      -12.238904805    12.099279889    -3.467683030
 C      -13.250684291    11.881516900    -4.607742181
 N      -14.061453728    10.648488819    -4.479695560
 C      -14.778347478    10.564392840    -3.254272302
 C      -15.764468894    11.541375128    -3.011627918
 C      -16.496793407    11.513467565    -1.836421803
 C      -16.295702670    10.501136371    -0.884748988
 C      -15.333931039     9.522145246    -1.141741183
 C      -14.585810417     9.542117147    -2.314492559
 C      -13.307304148     9.440937120    -4.860688164
 C      -17.096856446    10.518535028     0.341029217
 C      -16.992777782     9.607299944     1.317455375
Si      -17.991337464     9.625091507     2.850133143
 C      -19.648051458    10.377774489     2.587826597
 C      -20.281906190    10.251567664     1.346372922
 C      -21.537963985    10.816493338     1.131715385
 C      -22.194644312    11.507412472     2.154131562
 C      -21.562182937    11.624365125     3.398770307
 C      -20.305296322    11.064766871     3.615453389
 C      -23.509342456    12.114437503     1.974558279
 C      -24.220385117    12.074649663     0.834968037
 C      -25.535103424    12.681059949     0.653624620
 C      -26.192133314    13.375811721     1.672324118
 C      -27.449095476    13.940073468     1.455025226
 C      -28.073273592    13.828159123     0.208806908
 C      -27.415669763    13.132896482    -0.815194260
 C      -26.164256953    12.565080136    -0.593325629
Si      -29.731909084    14.566827618    -0.095082970
 C      -30.232176898    15.722119645     1.281389210
 C      -29.671012372    15.503286566    -1.751310482
 C      -31.030130588    13.181224164    -0.229794254
 C      -18.218593103     7.831310078     3.439003228
 C      -17.030538378    10.592148850     4.177333610
 C       -3.476490663    13.319715811     1.957686728
 C       -3.200332961    13.433488334    -1.121942393
 C       -0.650494958    -0.911762826    -1.539694649
 C       -0.624001305    -0.915577929     1.547480835
 H        1.148158838     2.666411766     0.734967344
 H        0.229954801     4.913774598     0.725838007
 H       -3.536375770     3.415628552    -0.720605639
 H       -2.659547594     1.147552726    -0.725208286
 H       -3.341651462     5.712609890    -0.356432333
 H       -0.616771046     6.749678705     0.684544390
 H       -0.419755265     9.043747860     1.050249483
 H       -1.294244098    11.314182222     1.057078081
 H       -5.105653841     9.801767491    -0.404526696
 H       -4.186130183     7.551835221    -0.402871791
 H       -6.243033421    11.737534712     0.946568611
 H       -6.093486036    13.790356215    -1.400826518
 H       -8.092711806    14.468130729    -2.336691696
 H      -10.537418740    14.431652500    -2.494067474
 H      -10.669302956    11.463302979     0.649581564
 H       -8.244394377    11.609441954     0.876810857
 H      -14.016334942    11.999651411    -0.450221273
 H      -12.739396479    12.044294194     0.780569800
 H      -12.658911529    10.850984591    -0.564865055
 H      -12.987957039     9.544452198    -5.912956738
 H      -13.972572511     8.561097701    -4.813775727
 H      -12.415479787     9.247137778    -4.244621484
 H      -15.953666742    12.309587831    -3.758600348
 H      -17.250663022    12.281218826    -1.656467816
 H      -15.163409338     8.722072581    -0.420119486
 H      -13.842567278     8.768061727    -2.481210470
 H      -17.806930054    11.356769147     0.382848260
 H      -16.267550272     8.781453642     1.254687010
 H      -19.819981976     9.715743290     0.510088580
 H      -22.007107989    10.710491921     0.155129842
 H      -22.056706085    12.157405067     4.208580385
 H      -19.862108344    11.187884663     4.607382846
 H      -23.901866574    12.626270404     2.858066838
 H      -23.827790737    11.562062360    -0.048326650
 H      -25.725829335    13.481429178     2.650177791
 H      -27.914419028    14.469738475     2.290945883
 H      -27.854724596    13.014102714    -1.809865331
 H      -25.670309251    12.027077586    -1.400269160
 H      -13.872340926    13.048360908    -2.345666930
 H      -12.536903961    14.148354558    -2.740154381
 H      -11.271474956    12.449236971    -3.872636949
 H      -12.006020083    11.135080080    -2.975425059
 H      -13.953780330    12.741066116    -4.683708434
 H      -12.722531404    11.841416818    -5.586611501
 H        2.263126188    -1.029066821    -0.054628976
 H        2.276427591     0.467318389     0.911746222
 H        2.259610685     0.555340016    -0.870534167
 H      -31.209525711    16.192111686     1.070911285
 H      -29.493465026    16.534773281     1.405196309
 H      -30.318485399    15.194355676     2.247338097
 H      -29.407343704    14.732291730    -2.532614966
 C      -31.016544351    16.135768339    -2.148839384
 C      -28.579776898    16.588899585    -1.774510315
 H      -32.022372270    13.705210627    -0.348859010
 C      -30.829088739    12.260417166    -1.446554444
 C      -31.097935971    12.312044007     1.039362367
 H      -17.180588625     7.421015645     3.602696274
 C      -18.989631665     7.725307182     4.766092013
 C      -18.917784415     6.957010714     2.382682656
 H      -17.644764505    10.523296107     5.121073102
 C      -15.640358167    10.000371592     4.470912969
 C      -16.872529530    12.079447103     3.814025938
 H       -2.348816540    13.352556532     1.972508767
 C       -3.997650160    14.764323716     2.051567559
 C       -3.944604971    12.534795212     3.196095639
 H       -3.730585574    14.429734149    -1.133431580
 C       -1.692533306    13.700854286    -0.967042109
 C       -3.441771029    12.744028707    -2.477426523
 H       -1.775145020    -0.920218031    -1.443094400
 C       -0.295639834    -0.184381585    -2.849234767
 C       -0.176158970    -2.372961881    -1.633700120
 H       -0.146524333    -1.937155833     1.513153474
 C       -0.190258349    -0.229110909     2.855641300
 C       -2.151652984    -1.103005584     1.571627029
 H      -31.834545348    15.407593460    -2.222826866
 H      -30.932186121    16.604357192    -3.140272388
 H      -31.336618508    16.929668347    -1.461049701
 H      -27.576121205    16.200272123    -1.549953332
 H      -28.779071214    17.412937301    -1.076669171
 H      -28.517330467    17.039237996    -2.775468382
 H      -30.834155223    12.794713326    -2.404951247
 H      -31.647266064    11.527374368    -1.500882994
 H      -29.899623150    11.676518042    -1.389817108
 H      -31.320302381    12.884067495     1.949333850
 H      -30.172277116    11.746678938     1.219796220
 H      -31.899696651    11.565962074     0.942357638
 H      -18.502156126     8.250543350     5.597333240
 H      -19.067175183     6.671919704     5.072677003
 H      -20.021431279     8.098454365     4.693117409
 H      -18.396193729     6.936936717     1.416178299
 H      -19.956282500     7.265166910     2.192810559
 H      -18.966210686     5.914500472     2.728315988
 H      -15.672274521     8.956001128     4.806248169
 H      -15.155738899    10.565889963     5.280262231
 H      -14.961352704    10.056325159     3.608485516
 H      -17.829831079    12.591982105     3.645132896
 H      -16.251083204    12.238042477     2.920534314
 H      -16.376802282    12.617846272     4.634254282
 H       -3.637991026    15.410949313     1.240923059
 H       -3.657148156    15.227410187     2.988666439
 H       -5.095722263    14.822833393     2.060935181
 H       -3.575609968    11.499753459     3.220858546
 H       -5.038474775    12.500260504     3.292755530
 H       -3.569306346    13.015734882     4.110604330
 H       -1.440349243    14.267574448    -0.061821630
 H       -1.329313819    14.300623436    -1.814355415
 H       -1.092817460    12.779919038    -0.967117121
 H       -4.502296732    12.552430997    -2.690879319
 H       -2.911991410    11.784575365    -2.567003603
 H       -3.071195141    13.377784606    -3.295142160
 H       -0.650672674     0.855779549    -2.878172733
 H       -0.765710038    -0.693166090    -3.702788405
 H        0.783172400    -0.170712777    -3.053763149
 H       -0.455731218    -2.978146550    -0.761702212
 H        0.909778629    -2.462968413    -1.769210136
 H       -0.635472427    -2.860797626    -2.505777655
 H        0.898001414    -0.127784256     2.955557615
 H       -0.523957473    -0.821153442     3.719947344
 H       -0.631025287     0.770615714     2.979522514
 H       -2.534890410    -1.669548150     0.713589899
 H       -2.698001903    -0.150191685     1.617773759
 H       -2.446449824    -1.668299466     2.467752165

