187   

Si        0.000000000     0.000000000     0.000000000
 C        1.865457208     0.000000000     0.000000000
 C       -0.679944688     1.710589800     0.000000000
 C        0.137209985     2.814559101    -0.262226648
 C       -0.391678360     4.105300525    -0.258921652
 C       -1.747861329     4.321078717    -0.001714124
 C       -2.566246346     3.213220759     0.257185532
 C       -2.040827816     1.924250454     0.258487173
 C       -2.345601989     5.652047873     0.012295758
 C       -1.676446393     6.795072471    -0.215063730
 C       -2.277142613     8.124898427    -0.200363600
 C       -1.461681015     9.235819891    -0.454761368
 C       -1.991000167    10.523745007    -0.451142745
 C       -3.354039113    10.729047658    -0.204587875
 C       -4.170889066     9.622017854     0.048268217
 C       -3.635171779     8.334770274     0.054455087
Si       -4.067429720    12.424846887    -0.196660505
 C       -5.867009873    12.334379018    -0.497525683
 C       -6.818903267    12.929004547     0.233588608
 C       -8.251678325    12.827363473    -0.046985501
 C       -9.156940438    13.495337147     0.790312260
 C      -10.522366035    13.431340328     0.568468710
 C      -11.033475591    12.727933504    -0.545665251
 C      -10.124354372    12.058002883    -1.388519048
 C       -8.762410178    12.094463192    -1.121964748
 N      -12.415235395    12.671419381    -0.757645590
 C      -13.229529660    13.829517978    -0.359190189
 C      -12.895685530    11.963154175    -1.950374485
 C      -12.761757049    15.193038786    -0.901442217
 C      -13.094394434    15.444444335    -2.382735142
 N      -14.526648652    15.545709476    -2.728732962
 C      -15.155263336    14.310918227    -3.031952860
 C      -14.680287517    13.608736266    -4.158352067
 C      -15.248006206    12.396435516    -4.512713794
 C      -16.318966112    11.859850497    -3.781184091
 C      -16.804373796    12.574424760    -2.683700215
 C      -16.244225958    13.793521094    -2.315854869
 C      -15.283810333    16.460205918    -1.861409248
 C      -16.881903955    10.573919500    -4.199620687
 C      -17.901706244     9.965943032    -3.580638816
Si      -18.642453933     8.364200813    -4.058965451
 C      -18.753184689     7.275726625    -2.581017585
 C      -17.899914796     7.483968998    -1.490084977
 C      -17.979151075     6.662859145    -0.368077410
 C      -18.901033368     5.609215649    -0.313884836
 C      -19.745451747     5.400302082    -1.408172853
 C      -19.672821249     6.223013810    -2.531418207
 C      -18.945993124     4.776584042     0.883647612
 C      -19.783279298     3.741229258     1.064636413
 C      -19.828541283     2.908399779     2.261965374
 C      -18.985415647     3.115565727     3.356760701
 C      -19.062908988     2.294753512     4.481760908
 C      -19.992475793     1.251646581     4.538784427
 C      -20.839769102     1.042414718     3.442287859
 C      -20.755818304     1.859137650     2.318144105
Si      -20.106786230     0.159848588     6.016642969
 C      -19.188905906     0.878379758     7.473002216
 C      -21.946049074    -0.073079979     6.448558186
 C      -19.363746191    -1.543136101     5.603539166
 C      -20.385230076     8.687731507    -4.749589452
 C      -17.607687362     7.493335754    -5.395017252
 C       -3.684082287    13.250740562     1.472707341
 C       -3.272676084    13.456495125    -1.584533534
 C       -0.609022259    -0.925014396    -1.548177325
 C       -0.657808743    -0.902677417     1.541438219
 H        1.205134991     2.708654062    -0.471666723
 H        0.266436422     4.948151128    -0.461785831
 H       -3.625521080     3.359349865     0.460508392
 H       -2.727396878     1.099465882     0.469527610
 H       -3.418062231     5.668900381     0.228393034
 H       -0.604304752     6.779029148    -0.431094899
 H       -0.401804264     9.093654256    -0.655793286
 H       -1.306610995    11.352489558    -0.651181975
 H       -5.242619832     9.725311164     0.249285223
 H       -4.289679798     7.489151272     0.257872052
 H       -6.127504419    11.728488396    -1.381638672
 H       -6.594179817    13.544982886     1.114121965
 H       -8.783192907    14.064859254     1.641911146
 H      -11.199472692    13.922516741     1.260418635
 H      -10.474914399    11.502293861    -2.251921282
 H       -8.081686027    11.551800924    -1.780385335
 H      -14.001597420    11.960154787    -1.973756598
 H      -12.576993444    10.905545875    -1.898681102
 H      -12.539667348    12.400528869    -2.897516801
 H      -14.776891640    17.441329175    -1.852806953
 H      -15.397624187    16.116638036    -0.821608566
 H      -16.288829649    16.617959748    -2.292543740
 H      -13.873335903    14.032996251    -4.752985839
 H      -14.866754463    11.861359405    -5.383005269
 H      -17.639871640    12.180314410    -2.102799589
 H      -16.649702958    14.328219301    -1.462030735
 H      -16.381871441    10.149002764    -5.079700634
 H      -18.389563966    10.423898416    -2.703436052
 H      -17.156529326     8.287969759    -1.479604178
 H      -17.312851844     6.842508036     0.473874925
 H      -20.470019655     4.588340058    -1.391317881
 H      -20.359175585     6.011929052    -3.355914647
 H      -18.227749102     5.054078835     1.660985925
 H      -20.501125229     3.463475200     0.287361109
 H      -18.256033390     3.923414848     3.339406499
 H      -18.375773347     2.504817882     5.306224715
 H      -21.585840018     0.242834482     3.430628565
 H      -21.420839128     1.679571484     1.475609664
 H      -14.286846782    13.642627542    -0.656290753
 H      -13.234942594    13.860821503     0.757709264
 H      -13.193934435    15.995923245    -0.275413937
 H      -11.662190029    15.286537671    -0.773064796
 H      -12.627539455    16.408280106    -2.700251753
 H      -12.622339465    14.653527071    -3.007508939
 H        2.262890969    -1.029926528     0.040071283
 H        2.261825185     0.542808078     0.877326065
 H        2.274786007     0.479259075    -0.906483154
 H      -19.293027324     0.235319382     8.365188017
 H      -19.583187033     1.876825394     7.735940533
 H      -18.109958718     0.985850814     7.264991679
 H      -22.417482252    -0.555212033     5.543214294
 C      -22.181156841    -1.002290445     7.652642869
 C      -22.666827576     1.264040228     6.698286233
 H      -19.418811325    -2.139522363     6.559893024
 C      -20.142860909    -2.309308273     4.519608333
 C      -17.886153920    -1.455690676     5.179764602
 H      -20.792289786     7.678816007    -5.049677557
 C      -21.334316132     9.288632220    -3.697572614
 C      -20.381189672     9.589161011    -5.996501256
 H      -17.494091455     8.238138130    -6.235188754
 C      -16.201796220     7.113733219    -4.894941442
 C      -18.285652920     6.234301305    -5.964175067
 H       -4.221025624    14.243113263     1.458411530
 C       -4.212778395    12.434718246     2.666549191
 C       -2.184598927    13.524355231     1.687499708
 H       -2.171671507    13.507781402    -1.343511675
 C       -3.425802976    12.800039803    -2.968185967
 C       -3.813607403    14.895667995    -1.648839295
 H       -0.107573259    -1.935371353    -1.515496712
 C       -2.131297193    -1.150478526    -1.575343860
 C       -0.190796303    -0.226662284    -2.855174350
 H       -1.782330002    -0.904451945     1.441910790
 C       -0.191587777    -2.365947232     1.642050349
 C       -0.302511789    -0.171583240     2.848782976
 H      -21.756620567    -2.005451953     7.517326202
 H      -23.260110189    -1.144522619     7.811452899
 H      -21.784396740    -0.594962010     8.592060942
 H      -22.588985005     1.963285793     5.853409103
 H      -22.304936966     1.786235382     7.593917996
 H      -23.741017696     1.090075205     6.854468363
 H      -21.190800898    -2.496160000     4.786039661
 H      -19.687400349    -3.297309952     4.357940497
 H      -20.127092192    -1.803114524     3.544067736
 H      -17.241197851    -0.992037065     5.937291109
 H      -17.743722121    -0.904585675     4.238971118
 H      -17.482904875    -2.464238242     5.009138365
 H      -21.422595299     8.675664519    -2.789388901
 H      -22.349837896     9.371998274    -4.110486534
 H      -21.044261362    10.301901151    -3.387626004
 H      -19.793243816     9.180104160    -6.828202306
 H      -20.007416241    10.602615937    -5.791567573
 H      -21.405965749     9.711101688    -6.375898455
 H      -15.627288308     7.965021724    -4.505367989
 H      -15.609483471     6.691915804    -5.719150445
 H      -16.223569853     6.345422786    -4.108199174
 H      -19.255573070     6.436630375    -6.436024279
 H      -18.435593230     5.449668783    -5.208944353
 H      -17.653099850     5.787826578    -6.745374530
 H       -5.290893846    12.229333501     2.616024783
 H       -4.046182343    12.984476361     3.603405454
 H       -3.700717203    11.468279195     2.781472141
 H       -1.750027909    14.189371916     0.930540460
 H       -1.581674864    12.605649150     1.715126535
 H       -2.028532618    14.020431122     2.656520240
 H       -3.023785321    11.777943343    -3.012312148
 H       -2.875235895    13.378984799    -3.723133539
 H       -4.469181686    12.761329222    -3.310093997
 H       -3.657328848    15.461126513    -0.721206879
 H       -4.885827963    14.939252166    -1.888212922
 H       -3.298551102    15.456548884    -2.441668432
 H       -2.502283818    -1.724490555    -0.716891372
 H       -2.409378654    -1.725127583    -2.470935442
 H       -2.701130800    -0.211990889    -1.626512670
 H        0.894862912    -0.099810978    -2.954565293
 H       -0.653899438     0.763148568    -2.977261780
 H       -0.510437470    -0.824410964    -3.720762562
 H       -0.471537688    -2.972552237     0.771177035
 H       -0.656212121    -2.848418772     2.514326866
 H        0.893453783    -2.461092832     1.781152531
 H       -0.655340162     0.869504492     2.873216201
 H        0.775867464    -0.160075928     3.055176166
 H       -0.775783530    -0.675872459     3.703320645

