187   

Si        0.000000000     0.000000000     0.000000000
 C        1.865019232     0.000000000     0.000000000
 C       -0.678876179     1.711280799     0.000000000
 C        0.089658606     2.789012940     0.452056216
 C       -0.431392614     4.082825458     0.449112973
 C       -1.731672763     4.328275475     0.000291337
 C       -2.502467400     3.246709156    -0.446627338
 C       -1.985455623     1.954129877    -0.444301247
 C       -2.319563484     5.663442704    -0.021470359
 C       -1.693967788     6.783887833     0.377753443
 C       -2.286879403     8.117123552     0.353832578
 C       -1.522488014     9.203658502     0.799823925
 C       -2.047219873    10.493683876     0.794946966
 C       -3.354732861    10.724477253     0.351531478
 C       -4.120465492     9.642087216    -0.095186923
 C       -3.588158718     8.353701121    -0.098150199
Si       -4.064815852    12.421822570     0.337942374
 C       -5.887763509    12.303222162     0.288097292
 C       -6.691023424    12.951897715    -0.563855610
 C       -8.150516463    12.828098911    -0.569607289
 C       -8.878637728    13.564150817    -1.517180909
 C      -10.260432395    13.486350735    -1.569290177
 C      -10.944581090    12.621887802    -0.697285468
 C      -10.226772028    11.875249525     0.242946361
 C       -8.841170022    11.992374633     0.309620222
 N      -12.371458905    12.602234247    -0.817059700
 C      -12.801387799    11.828189623    -2.004629125
 C      -13.091691848    12.215655119     0.408829060
 C      -12.546198615    10.310000387    -1.903868516
 C      -12.422580868     9.647306806    -3.289687723
 N      -11.038664685     9.351476629    -3.715891318
 C      -10.215966239    10.477498134    -3.959165047
 C      -10.700880744    11.486786905    -4.816251043
 C       -9.929342163    12.606028947    -5.082216928
 C       -8.634073605    12.733046796    -4.558960285
 C       -8.141169546    11.710618903    -3.744067856
 C       -8.910440363    10.589764664    -3.453639070
 C      -10.431426060     8.260101942    -2.934487240
 C       -7.866033897    13.938415527    -4.874202774
 C       -6.622250445    14.180851104    -4.438426002
Si       -5.688943587    15.699102557    -4.851122111
 C       -6.173675147    16.364940963    -6.494036980
 C       -6.495007218    15.478318500    -7.528735086
 C       -6.865592316    15.958152746    -8.783573422
 C       -6.912504983    17.332076452    -9.037370516
 C       -6.582991879    18.217344096    -8.002913274
 C       -6.215874558    17.740791228    -6.746516935
 C       -7.294616587    17.879206818   -10.335025342
 C       -7.632425318    17.141320787   -11.406099099
 C       -8.014751904    17.686683819   -12.704354686
 C       -8.066241260    19.059321750   -12.960160374
 C       -8.437302322    19.537241504   -14.216960363
 C       -8.771016037    18.650344165   -15.245235609
 C       -8.720320107    17.272956111   -14.991104018
 C       -8.344399996    16.798944917   -13.737384332
Si       -9.262703769    19.265413164   -16.909191916
 C       -9.649988901    21.089898209   -16.879831626
 C       -7.843903730    18.959916000   -18.140777103
 C      -10.785523477    18.279497284   -17.485795613
 C       -6.035088681    16.986524014    -3.490401637
 C       -3.831711434    15.299710217    -4.846849761
 C       -3.526736525    13.412853917     1.861999707
 C       -3.426821913    13.267437461    -1.246017064
 C       -0.647663516    -0.917181034    -1.537786358
 C       -0.625886290    -0.912971369     1.548265544
 H        1.113693596     2.659389289     0.813121721
 H        0.188469931     4.904742243     0.802774474
 H       -3.517976714     3.415794366    -0.799615975
 H       -2.634889159     1.150635675    -0.802749006
 H       -3.345757492     5.704157583    -0.398622478
 H       -0.668004687     6.745199642     0.755071730
 H       -0.506354437     9.040673486     1.153917355
 H       -1.404581559    11.302929483     1.152060258
 H       -5.147425510     9.766116441    -0.455991865
 H       -4.200729410     7.527732777    -0.454769497
 H       -6.301599563    11.635609725     1.062289424
 H       -6.312876481    13.629060509    -1.342593404
 H       -8.354057610    14.221416278    -2.215907743
 H      -10.823428280    14.080459378    -2.287822560
 H      -10.740793961    11.205591855     0.925168440
 H       -8.296952504    11.411765150     1.054676839
 H      -14.164734689    12.430011501     0.262866941
 H      -12.742460157    12.845208656     1.246178011
 H      -12.984411347    11.159375347     0.695518706
 H      -11.124625848     7.402316216    -2.908012055
 H      -10.178020141     8.534386535    -1.897875218
 H       -9.514278925     7.916511960    -3.446539959
 H      -11.683680994    11.386854984    -5.269056175
 H      -10.331557988    13.390049984    -5.725073943
 H       -7.137918112    11.784481063    -3.318775672
 H       -8.496205045     9.825727710    -2.802779277
 H       -8.413654316    14.638370076    -5.522383616
 H       -6.090126151    13.467934991    -3.790230083
 H       -6.473015445    14.391662884    -7.389787367
 H       -7.117049886    15.248535796    -9.569859680
 H       -6.612469717    19.290771747    -8.179634885
 H       -5.969431431    18.479534228    -5.979248722
 H       -7.290468432    18.971644085   -10.390291289
 H       -7.635717362    16.048564619   -11.350316158
 H       -7.814741845    19.770877857   -12.175770656
 H       -8.458567005    20.621566210   -14.356821446
 H       -8.970462402    16.532772301   -15.756394723
 H       -8.309220867    15.725663804   -13.559751757
 H      -13.882178898    12.030238535    -2.165160650
 H      -12.265475022    12.248257351    -2.888783624
 H      -11.621896278    10.129404292    -1.319117879
 H      -13.356933797     9.830903409    -1.328073678
 H      -12.983926156     8.684803037    -3.300776236
 H      -12.903156674    10.276724267    -4.071490885
 H        2.262843983    -1.029682318    -0.042602610
 H        2.276751879     0.478173358     0.905843914
 H        2.259279282     0.545219001    -0.877045735
 H       -9.981281869    21.442275887   -17.873012841
 H       -8.770245122    21.690980282   -16.590448625
 H      -10.460894239    21.311001778   -16.162180237
 H       -8.186871066    19.408093799   -19.117879102
 C       -6.539299058    19.663788648   -17.724418110
 C       -7.544870932    17.469108797   -18.379652990
 H      -10.458109753    17.199785899   -17.524862474
 C      -11.961224638    18.378894025   -16.496997928
 C      -11.276643506    18.673604690   -18.890092984
 H       -5.449948817    17.905982922    -3.780994212
 C       -7.524777456    17.367559364    -3.417968736
 C       -5.566463756    16.551302041    -2.090764148
 H       -3.598267093    14.912769430    -3.810919811
 C       -3.466967321    14.203062858    -5.862906594
 C       -2.947513286    16.532212949    -5.101895764
 H       -2.400122524    13.466653143     1.818940347
 C       -4.071989644    14.852382928     1.864397100
 C       -3.917573239    12.723531830     3.181441849
 H       -4.050294582    14.198134059    -1.382350972
 C       -1.951147197    13.693529811    -1.170008535
 C       -3.621387676    12.364548221    -2.478180978
 H       -1.772348226    -0.928601235    -1.441947991
 C       -0.293505860    -0.192923008    -2.849200221
 C       -0.169833217    -2.377586009    -1.627176263
 H       -0.151645012    -1.936080492     1.514805837
 C       -0.189981564    -0.227186787     2.856009649
 C       -2.154167036    -1.095366034     1.571865323
 H       -6.646508197    20.749998399   -17.609196932
 H       -5.767514596    19.511344526   -18.492523149
 H       -6.121968768    19.269239273   -16.786718168
 H       -8.406287651    16.907374237   -18.762313143
 H       -7.180978036    16.956983482   -17.477697990
 H       -6.750670762    17.361910365   -19.132939206
 H      -11.699507300    18.058721178   -15.478251121
 H      -12.783589769    17.725799776   -16.822040146
 H      -12.379889389    19.391620031   -16.427862108
 H      -10.509169288    18.561691275   -19.666825655
 H      -11.653840111    19.703705178   -18.938425793
 H      -12.113515173    18.026180773   -19.190048740
 H       -7.924639092    17.752072395    -4.366103226
 H       -7.675649105    18.165058820    -2.676896867
 H       -8.166601000    16.530758911    -3.104987643
 H       -4.493170030    16.328133419    -2.040055100
 H       -6.115490997    15.678425399    -1.708740956
 H       -5.743930405    17.360538400    -1.367352674
 H       -4.028752218    13.269219921    -5.721580673
 H       -2.403028968    13.941872893    -5.771960157
 H       -3.614105303    14.521704510    -6.905075443
 H       -3.081345230    17.326904510    -4.356954499
 H       -3.105931531    16.975749464    -6.095385243
 H       -1.885703358    16.248977562    -5.061141301
 H       -3.765123578    15.435850541     0.986655204
 H       -3.695006535    15.396115400     2.742372054
 H       -5.169100519    14.894101725     1.926259054
 H       -3.525562517    11.700763682     3.272120848
 H       -5.004622637    12.677662109     3.335185510
 H       -3.509784470    13.284197980     4.034770758
 H       -1.744514078    14.408359823    -0.363585662
 H       -1.655273547    14.192012077    -2.105059504
 H       -1.265065839    12.843882701    -1.048893241
 H       -4.669181949    12.084200961    -2.654065285
 H       -3.038009647    11.433646960    -2.423796584
 H       -3.277409939    12.879243644    -3.387496183
 H       -0.651266869     0.846152920    -2.882032341
 H       -0.761046156    -0.705838611    -3.701712511
 H        0.785520948    -0.176889546    -3.052645377
 H       -0.449102900    -2.980979702    -0.753835118
 H        0.916475020    -2.465548950    -1.761159781
 H       -0.627010570    -2.868943314    -2.498404156
 H        0.898651641    -0.129892001     2.956006473
 H       -0.525916119    -0.817502029     3.720651114
 H       -0.627284885     0.774114841     2.979240118
 H       -2.537934266    -1.665984688     0.716726264
 H       -2.697815836    -0.140705060     1.611244122
 H       -2.451947838    -1.654229719     2.471013411

