187   

Si        0.000000000     0.000000000     0.000000000
 C        1.865082201     0.000000000     0.000000000
 C       -0.678116683     1.711512835     0.000000000
 C        0.086334851     2.786406552    -0.465414564
 C       -0.433548075     4.080641230    -0.462640229
 C       -1.729127738     4.329154018    -0.001983727
 C       -2.496038379     3.250207661     0.457767371
 C       -1.979937371     1.957309128     0.456425298
 C       -2.315973811     5.664766223     0.020250863
 C       -1.693977936     6.783305537    -0.389586824
 C       -2.286244316     8.116831825    -0.364948563
 C       -1.526092110     9.201480683    -0.822782724
 C       -2.050383933    10.491421645    -0.817657378
 C       -3.352991027    10.725485063    -0.359272246
 C       -4.113830278     9.644939730     0.098902232
 C       -3.582819704     8.355648027     0.098818672
Si       -4.053013047    12.426652882    -0.349259170
 C       -5.873548358    12.343787937    -0.211418553
 C       -6.627506483    13.024869156     0.661258753
 C       -8.086204548    12.927172008     0.736017345
 C       -8.769861260    13.689919655     1.692827733
 C      -10.149936893    13.633441546     1.804545482
 C      -10.908331817    12.839312450     0.917867221
 C      -10.221293613    12.073513151    -0.044400283
 C       -8.834799356    12.105377212    -0.111332811
 N      -12.308794941    12.782290464     1.031596214
 C      -12.991311817    13.950216453     1.614589561
 C      -13.045954014    12.202868922    -0.104722322
 C      -12.870997028    15.214137956     0.748000157
 C      -13.504070964    16.418932433     1.462849881
 N      -13.595898929    17.616816023     0.610117399
 C      -14.434482543    17.544326292    -0.517392375
 C      -15.540787200    16.668219636    -0.532241333
 C      -16.366518304    16.597003810    -1.642777742
 C      -16.160945116    17.425008065    -2.754956602
 C      -15.083986799    18.315357385    -2.726586269
 C      -14.234865946    18.384889832    -1.630090577
 C      -12.294881240    18.283648220     0.426783390
 C      -17.063753304    17.307097006    -3.900520871
 C      -16.966694117    18.042699598    -5.016322003
Si      -18.099314673    17.888928368    -6.443474667
 C      -18.753809812    16.177644166    -6.610204317
 C      -17.933635178    15.090781483    -6.283998260
 C      -18.407114360    13.785318687    -6.402166177
 C      -19.704034968    13.534909135    -6.859925423
 C      -20.520072455    14.623486137    -7.193481922
 C      -20.051351311    15.929659001    -7.072458760
 C      -20.241797912    12.185700609    -6.999519454
 C      -19.566342748    11.059350549    -6.714680531
 C      -20.103938884     9.710087151    -6.854212886
 C      -21.401453369     9.458796262    -7.307633544
 C      -21.875128806     8.152253263    -7.426006331
 C      -21.061441219     7.066814201    -7.086376861
 C      -19.759652062     7.316261709    -6.631021360
 C      -19.287660985     8.621148223    -6.519738062
Si      -21.673331858     5.337152111    -7.237575946
 C      -23.528797858     5.279971201    -7.420479260
 C      -20.879645763     4.520444872    -8.762697134
 C      -21.135917872     4.370208582    -5.688407486
 C      -19.529321869    19.125272768    -6.228894619
 C      -17.140271998    18.334078793    -8.024778221
 C       -3.296787451    13.407153920     1.093952255
 C       -3.609141700    13.298209684    -1.981732075
 C       -0.625611835    -0.910610382    -1.549895966
 C       -0.648418997    -0.919999634     1.535769781
 H        1.106125651     2.654341723    -0.837243749
 H        0.183337152     4.900558036    -0.825826478
 H       -3.508033796     3.421580327     0.820059116
 H       -2.626158763     1.155997941     0.825466273
 H       -3.338486645     5.707558334     0.407584752
 H       -0.672010243     6.742576524    -0.777055043
 H       -0.513940577     9.036779332    -1.186807102
 H       -1.411152646    11.298719876    -1.185268480
 H       -5.135784423     9.770791666     0.471815928
 H       -4.192890108     7.531311824     0.463753828
 H       -6.333407513    11.663478150    -0.947880966
 H       -6.202918180    13.716036310     1.401053481
 H       -8.208252348    14.332317112     2.372008509
 H      -10.640801349    14.214083580     2.579799063
 H      -10.763429097    11.439977359    -0.739148650
 H       -8.328352441    11.487447327    -0.855136324
 H      -14.132425998    12.263995576     0.075334973
 H      -12.796193257    11.129469939    -0.187989188
 H      -12.827497147    12.697222119    -1.065820730
 H      -11.701046921    18.221934522     1.353978588
 H      -12.464219936    19.357397152     0.227275036
 H      -11.696903324    17.856550015    -0.395213627
 H      -15.751279849    16.032916818     0.322849225
 H      -17.200247548    15.893154899    -1.641495602
 H      -14.900928872    18.972530210    -3.578165138
 H      -13.412518664    19.092796792    -1.649502662
 H      -17.838584891    16.539201212    -3.761984447
 H      -16.188536914    18.812513550    -5.127650235
 H      -16.907893689    15.225786928    -5.923759025
 H      -17.752730712    12.957341105    -6.136096585
 H      -21.532701510    14.450277344    -7.552367750
 H      -20.733628206    16.738202391    -7.348247144
 H      -21.271708978    12.139295495    -7.365430476
 H      -18.536147266    11.105693667    -6.349555270
 H      -22.056540851    10.286011922    -7.574760797
 H      -22.898669570     8.018918625    -7.787144152
 H      -19.078600950     6.507506309    -6.351345343
 H      -18.272945228     8.794679275    -6.166672311
 H      -14.062493195    13.684784151     1.768326725
 H      -12.580571403    14.129179418     2.634389639
 H      -11.808370792    15.420353432     0.515669275
 H      -13.358233670    15.051905305    -0.233367297
 H      -14.525683424    16.169450291     1.830896891
 H      -12.917794779    16.683046310     2.372420263
 H        2.262885646    -1.029714893     0.041040958
 H        2.259406878     0.544137821     0.877687535
 H        2.276550630     0.479523283    -0.905202914
 H      -23.891892134     4.237767469    -7.468728682
 H      -23.866226304     5.792061569    -8.338511575
 H      -24.026349632     5.765093977    -6.561053024
 H      -21.329294124     3.487386767    -8.824444966
 C      -21.210073907     5.263657187   -10.069968636
 C      -19.351776209     4.368910471    -8.654038012
 H      -20.007531182     4.402780966    -5.679194646
 C      -21.636303226     5.019181029    -4.385236691
 C      -21.563478402     2.891887274    -5.708701283
 H      -20.173974639    19.021336555    -7.148880807
 C      -20.395691916    18.807229128    -4.997001650
 C      -19.058673296    20.588202927    -6.142826956
 H      -16.771045944    19.390110919    -7.878991574
 C      -15.916589569    17.425550954    -8.240434725
 C      -18.014997636    18.303367137    -9.290078496
 H       -3.837361725    14.397609131     1.111823658
 C       -3.516234403    12.714732178     2.451568472
 C       -1.793647520    13.689982343     0.921863577
 H       -2.482417115    13.351166586    -2.009722986
 C       -4.077858633    12.508838079    -3.216971020
 C       -4.156251937    14.733941631    -2.065379755
 H       -0.155163478    -1.935405541    -1.515477990
 C       -2.154480977    -1.087281477    -1.576549497
 C       -0.184483739    -0.226414180    -2.856693972
 H       -1.773143812    -0.929973996     1.439979483
 C       -0.172189324    -2.381166854     1.621700195
 C       -0.293206626    -0.199404497     2.848931540
 H      -22.286923242     5.343711637   -10.266491470
 H      -20.780893405     4.726232439   -10.927802947
 H      -20.789316152     6.279074272   -10.101835389
 H      -19.034090765     3.762963234    -7.796119855
 H      -18.829515471     5.334500791    -8.597961818
 H      -18.960507468     3.862039992    -9.548307589
 H      -21.321741212     6.066700465    -4.273388822
 H      -21.229948054     4.482141919    -3.516316522
 H      -22.729240161     4.989773706    -4.283115788
 H      -21.182978480     2.340877214    -6.578463984
 H      -22.653324883     2.760746655    -5.680211125
 H      -21.169072337     2.375101383    -4.821589017
 H      -20.818683650    17.793249163    -5.009094936
 H      -21.250009955    19.496779045    -4.947346060
 H      -19.849154754    18.924469045    -4.049650323
 H      -18.498088910    20.918850823    -7.026350140
 H      -18.438039253    20.785936727    -5.257493612
 H      -19.927461782    21.257630176    -6.063366472
 H      -15.209982867    17.438035007    -7.399363098
 H      -15.351550997    17.757363944    -9.123035885
 H      -16.190692182    16.377430710    -8.428521944
 H      -18.864045401    18.997593648    -9.250435234
 H      -18.411620048    17.302231080    -9.512093575
 H      -17.419478297    18.597131163   -10.166653045
 H       -4.572283531    12.512166075     2.676809019
 H       -3.142940104    13.351865139     3.265488489
 H       -2.975560244    11.760668691     2.534865713
 H       -1.559386601    14.269635880     0.020041939
 H       -1.185499310    12.774620507     0.902209929
 H       -1.423725576    14.282827110     1.771170743
 H       -3.690554463    11.480591910    -3.249338981
 H       -3.722458280    12.998913400    -4.134553520
 H       -5.171944230    12.454577966    -3.300754341
 H       -3.792905960    15.385945633    -1.260705509
 H       -5.254967880    14.774215436    -2.055676654
 H       -3.839956675    15.203054409    -3.007992575
 H       -2.541759794    -1.659328784    -0.723933909
 H       -2.452927123    -1.641890814    -2.478077945
 H       -2.694642171    -0.130483403    -1.613535854
 H        0.904747587    -0.134481992    -2.954974763
 H       -0.616712475     0.777082470    -2.980095369
 H       -0.522004416    -0.814519000    -3.722182246
 H       -0.451356384    -2.981874716     0.746493410
 H       -0.630663715    -2.874442636     2.491179289
 H        0.913916422    -2.470613253     1.756270885
 H       -0.646799467     0.841056120     2.883265042
 H        0.785631607    -0.188055159     3.053675048
 H       -0.763951757    -0.712098615     3.699830026

