187   

Si        0.000000000     0.000000000     0.000000000
 C        1.865933840     0.000000000     0.000000000
 C       -0.682291227     1.709561374     0.000000000
 C        0.157096831     2.827770202     0.015580427
 C       -0.377295352     4.116375836     0.015336775
 C       -1.759579989     4.315901147    -0.009247163
 C       -2.599970311     3.194241752    -0.023582163
 C       -2.069818125     1.907634406    -0.013558233
 C       -2.366058754     5.642031175    -0.010565575
 C       -1.685257157     6.800587741     0.011149715
 C       -2.310792594     8.118629637     0.009409527
 C       -3.698536882     8.282522001    -0.015549915
 C       -4.264917568     9.555402777    -0.016517979
 C       -3.452229723    10.694362515    -0.000606452
 C       -2.061434545    10.534583920     0.025728749
 C       -1.498999241     9.260072870     0.035865187
Si       -4.212860524    12.365953800    -0.002091875
 C       -3.224768156    13.603423501    -0.911908742
 C       -2.431509200    13.334018459    -1.957759547
 C       -1.651657803    14.350996610    -2.665764663
 C       -0.849139458    13.967698721    -3.751485372
 C       -0.095240005    14.896448671    -4.449513490
 C       -0.213637674    16.274089747    -4.158801559
 C       -1.035013212    16.661483427    -3.083743970
 C       -1.708646802    15.705689610    -2.332845899
 N        0.558271679    17.206297401    -4.875731089
 C        0.754897395    16.962567150    -6.320931628
 C        0.345790411    18.628442100    -4.557845957
 C       -0.457645241    16.458919580    -7.124158906
 C       -1.591634241    17.481296039    -7.344541549
 N       -2.930822185    17.120503644    -6.801808295
 C       -3.137118954    15.712347226    -6.694836151
 C       -3.228285146    14.973954759    -7.888739853
 C       -3.428541492    13.601532938    -7.843660028
 C       -3.517680813    12.924937795    -6.618496889
 C       -3.449597053    13.670585092    -5.438892243
 C       -3.297155931    15.050865529    -5.471089712
 C       -3.281607365    17.888779257    -5.593614469
 C       -3.729601975    11.474368849    -6.603730712
 C       -3.824843439    10.761260227    -5.474536133
Si       -4.086577526     8.961723872    -5.309449513
 C       -5.468639190     8.675583454    -4.129962294
 C       -6.677784765     9.365304686    -4.286855436
 C       -7.729580400     9.154771545    -3.398368144
 C       -7.598245696     8.252633184    -2.334589628
 C       -6.391912123     7.563941411    -2.183068837
 C       -5.338829151     7.769786810    -3.072613981
 C       -8.723780684     8.060976417    -1.426371778
 C       -8.715652330     7.222445127    -0.376176108
 C       -9.833568223     7.021820431     0.538809223
 C      -11.048393985     7.698976286     0.406835700
 C      -12.090899072     7.475378879     1.306030123
 C      -11.937741681     6.571401677     2.361946067
 C      -10.719696006     5.891342842     2.497014002
 C       -9.682867864     6.113416140     1.595283032
Si      -13.302828491     6.263732785     3.558252389
 C      -14.659324986     7.533627513     3.394911318
 C      -14.042051591     4.537710953     3.245320188
 C      -12.573422278     6.301124708     5.316071369
 C       -4.478188245     8.126349532    -6.968093699
 C       -2.467844376     8.234408482    -4.617556219
 C       -5.937408900    12.307642596    -0.804362576
 C       -4.398812911    12.939861340     1.801265257
 C       -0.574440698    -0.942030929    -1.552667680
 C       -0.672294655    -0.887407558     1.542795982
 H        1.246538733     2.734350340     0.029282400
 H        0.297644363     4.970143610     0.032654995
 H       -3.680147456     3.327783097    -0.040673400
 H       -2.774627182     1.071058482    -0.015514934
 H       -3.460533504     5.640924260    -0.031195186
 H       -0.592644756     6.807594858     0.033429759
 H       -4.353027482     7.413007798    -0.033227368
 H       -5.358254265     9.616150729    -0.042085815
 H       -1.380898277    11.391986027     0.038458018
 H       -0.416729218     9.153492064     0.062440697
 H       -3.343323095    14.632263965    -0.537901066
 H       -2.293698290    12.319503054    -2.357075743
 H       -0.789490198    12.914489154    -4.034289227
 H        0.580106033    14.561557595    -5.231977358
 H       -1.138427954    17.705652127    -2.808775523
 H       -2.309329229    16.033700710    -1.482962496
 H        1.070845199    19.245628923    -5.115156667
 H        0.553230640    18.796504209    -3.484791180
 H       -0.669507746    18.988838721    -4.787107687
 H       -3.281381496    18.962178044    -5.846522827
 H       -2.608802341    17.723695609    -4.736946309
 H       -4.310825007    17.629959243    -5.286336684
 H       -3.147842478    15.490226627    -8.842261614
 H       -3.509330899    13.044465927    -8.775776735
 H       -3.533077436    13.176573459    -4.466908012
 H       -3.253527852    15.599465921    -4.531182047
 H       -3.804370255    11.030037547    -7.601934112
 H       -3.737941109    11.254801332    -4.487217449
 H       -6.831917293    10.086268132    -5.096308049
 H       -8.662172516     9.698176485    -3.534084886
 H       -6.266951740     6.852689187    -1.368988441
 H       -4.419080937     7.201336697    -2.900323274
 H       -9.608705692     8.660186132    -1.656311957
 H       -7.828310311     6.623407876    -0.148840664
 H      -11.191606464     8.410172081    -0.404682696
 H      -13.018040960     8.034231800     1.151391918
 H      -10.542393879     5.173905424     3.303385396
 H       -8.744370070     5.575526656     1.716272597
 H        1.158063092    17.885973709    -6.791495391
 H        1.572120194    16.201713687    -6.397651980
 H       -0.095436107    16.109932339    -8.111981006
 H       -0.851213136    15.537271424    -6.645651009
 H       -1.291262121    18.475644062    -6.955932889
 H       -1.751337062    17.614943708    -8.441711225
 H        2.263509973    -1.030634416     0.004012085
 H        2.266271509     0.511674028     0.893755601
 H        2.271246071     0.510144553    -0.891646973
 H      -15.459089686     7.359950132     4.136905518
 H      -15.124083282     7.509443769     2.393704562
 H      -14.268563554     8.553960949     3.561450595
 H      -14.904046571     4.440562750     3.967038126
 C      -14.595794717     4.384314768     1.816835569
 C      -13.059882050     3.384894776     3.519640928
 H      -11.794017667     5.484866236     5.344614371
 C      -11.870850276     7.633454940     5.634140790
 C      -13.607354623     6.003597682     6.416474436
 H       -3.626146211     8.394608306    -7.658145047
 C       -4.544110077     6.591690877    -6.865703938
 C       -5.784153423     8.635863121    -7.604694701
 H       -2.690116416     7.157775961    -4.363430563
 C       -1.311410289     8.251264993    -5.633307416
 C       -2.007863186     8.948203769    -3.335228221
 H       -6.535231899    11.552398777    -0.216414876
 C       -6.683958199    13.652182931    -0.745427367
 C       -5.873004297    11.837773749    -2.265853324
 H       -4.879839022    13.959082822     1.759063203
 C       -5.307223054    12.016909323     2.632169186
 C       -3.041390704    13.081586786     2.512829937
 H        0.001166193    -1.913124557    -1.540291806
 C       -2.074429396    -1.284815025    -1.573032652
 C       -0.223327430    -0.195290094    -2.852842954
 H       -1.796872523    -0.862162925     1.444275071
 C       -0.238199031    -2.360449636     1.643068793
 C       -0.298898303    -0.164285410     2.849578603
 H      -15.376376267     5.115715389     1.570889018
 H      -15.054947251     3.392751061     1.695165703
 H      -13.815653879     4.458200690     1.045502258
 H      -12.673594598     3.375594985     4.546697560
 H      -12.200129500     3.385356506     2.834913364
 H      -13.565336077     2.418990662     3.374135773
 H      -11.078587532     7.888633700     4.915781903
 H      -11.385333166     7.578237475     6.618982830
 H      -12.563707142     8.484134574     5.678462380
 H      -14.099328718     5.029453079     6.298612944
 H      -14.392135615     6.768510677     6.485429106
 H      -13.113631772     5.981222820     7.398997443
 H       -3.613526167     6.137813309    -6.500498076
 H       -4.729165261     6.155747049    -7.857871307
 H       -5.361545829     6.240314624    -6.220203819
 H       -5.808078391     9.724817200    -7.746353391
 H       -6.676233672     8.356052542    -7.026340402
 H       -5.914750182     8.192431095    -8.601879858
 H       -1.523109595     7.679145279    -6.545041058
 H       -0.415842465     7.795069602    -5.187027553
 H       -1.021389590     9.267290412    -5.935649993
 H       -2.782187917     9.006523605    -2.553995808
 H       -1.649602488     9.970117289    -3.519243165
 H       -1.168979168     8.402469314    -2.879394029
 H       -6.836920889    14.022956160     0.275365706
 H       -7.686716362    13.541007256    -1.183380040
 H       -6.184458233    14.443737302    -1.321283019
 H       -5.417224422    10.842385232    -2.379836135
 H       -5.332328888    12.534527266    -2.921622802
 H       -6.887572951    11.748907896    -2.681135607
 H       -6.328748082    11.940055937     2.236804761
 H       -5.403399074    12.405150544     3.656254827
 H       -4.909167339    10.996456925     2.728426819
 H       -2.354146334    13.773843384     2.007938976
 H       -2.518963138    12.121253955     2.630273575
 H       -3.186960156    13.477093137     3.528013152
 H       -2.405517083    -1.854510097    -0.695693139
 H       -2.302690451    -1.910755718    -2.448337855
 H       -2.713890823    -0.395918759    -1.660753597
 H        0.849307024     0.010512156    -2.962713487
 H       -0.755837770     0.761473698    -2.952938494
 H       -0.510849393    -0.800325547    -3.724583739
 H       -0.531668236    -2.961040339     0.772415371
 H       -0.712173887    -2.832743279     2.515860851
 H        0.844770602    -2.478897844     1.780908394
 H       -0.630152179     0.883739550     2.875269883
 H        0.779711271    -0.176111500     3.054425322
 H       -0.781780186    -0.658839624     3.704566507

