187   

Si        0.000000000     0.000000000     0.000000000
 C        1.865313225     0.000000000     0.000000000
 C       -0.660390568     1.717949637     0.000000000
 C        0.063968882     2.752721269    -0.602257050
 C       -0.429946586     4.056871614    -0.606233018
 C       -1.671031827     4.349094160    -0.034934869
 C       -2.400918798     3.309421140     0.556074769
 C       -1.903232948     2.009755479     0.575891648
 C       -2.234815107     5.692987977    -0.011285440
 C       -1.647045451     6.788052234    -0.522065796
 C       -2.237537908     8.121920405    -0.482944292
 C       -3.483499048     8.366182531     0.100162266
 C       -4.020040679     9.652177477     0.121298464
 C       -3.304492687    10.729597291    -0.408994051
 C       -2.051931076    10.489481752    -0.988442668
 C       -1.531389156     9.198781701    -1.033863472
Si       -3.985393733    12.437571323    -0.395831938
 C       -2.886803678    13.484567343     0.622203744
 C       -2.349370157    14.671442853     0.313935430
 C       -1.475987639    15.422795820     1.220092409
 C       -0.960354348    16.657267582     0.809912030
 C       -0.128667784    17.404795070     1.634512622
 C        0.168657191    16.962201308     2.937724814
 C       -0.346742729    15.715425518     3.349201535
 C       -1.123049466    14.952492104     2.490511940
 N        1.010119317    17.686432417     3.817595912
 C        1.379693536    19.043342047     3.353670693
 C        0.585572229    17.609899433     5.229782298
 C        2.293325877    19.832672019     4.305637657
 C        3.599255956    19.104591851     4.683735023
 N        4.533050522    18.820519972     3.579155707
 C        4.221458120    17.655966241     2.825063627
 C        4.181979672    16.430078570     3.519458876
 C        3.884809477    15.258869930     2.844631241
 C        3.655528931    15.265471109     1.460047624
 C        3.725070890    16.478447830     0.773236330
 C        4.015652881    17.665470934     1.439090545
 C        4.901001149    20.014713739     2.802672923
 C        3.345006100    13.998793737     0.795561291
 C        3.109238582    13.889609103    -0.518124938
Si        2.720495713    12.324494302    -1.369579750
 C        1.842319879    11.137401559    -0.275258551
 C        0.886028078    11.588331208     0.644143479
 C        0.223218620    10.683956391     1.471403099
 C        0.509956260     9.314067849     1.410748680
 C        1.465077811     8.869288920     0.491658850
 C        2.119235834     9.768418906    -0.347410518
 C       -0.200145859     8.389385692     2.289571522
 C        0.001761254     7.060729620     2.287562200
 C       -0.678032334     6.095154822     3.141390380
 C       -1.642815849     6.458114571     4.083220875
 C       -2.262269923     5.490247545     4.874966739
 C       -1.937692213     4.137946468     4.730749892
 C       -0.971329873     3.772259109     3.784027785
 C       -0.347927664     4.739809863     3.003208685
Si       -2.738136682     2.840308510     5.760664053
 C       -4.207494310     3.506033876     6.697081457
 C       -3.275422918     1.425864999     4.603538638
 C       -1.472715161     2.154076313     7.006437830
 C        1.578998938    12.746996459    -2.833563960
 C        4.323288960    11.557880826    -2.047156629
 C       -4.261777380    13.062502409    -2.168416018
 C       -5.690089035    12.458596176     0.467674933
 C       -0.649817472    -0.903682131    -1.541678758
 C       -0.641096562    -0.907750332     1.547301873
 H        1.034783245     2.581619891    -1.074459081
 H        0.157064314     4.847526479    -1.069199614
 H       -3.367964124     3.521098984     1.009956329
 H       -2.515163854     1.243563538     1.060321472
 H       -3.210964566     5.765925437     0.478971665
 H       -0.668686727     6.729591916    -1.005296462
 H       -4.049855106     7.548782571     0.542494665
 H       -5.008628176     9.772127298     0.571551455
 H       -1.437778564    11.296677854    -1.403510294
 H       -0.552878383     9.032153412    -1.483367019
 H       -2.683393671    13.017962263     1.603909831
 H       -2.524473383    15.174353904    -0.643739830
 H       -1.201291495    17.040771650    -0.181713201
 H        0.272216164    18.338330151     1.254810787
 H       -0.102655515    15.321953532     4.331949102
 H       -1.475670636    13.975797790     2.825942245
 H        1.154087746    18.308729367     5.859926700
 H        0.806691766    16.595538742     5.610821311
 H       -0.487696769    17.816502462     5.371031742
 H        5.255602186    20.797180881     3.494941055
 H        4.085706383    20.432108990     2.191884101
 H        5.746342143    19.762028331     2.137168403
 H        4.377158306    16.409845052     4.588816714
 H        3.831805136    14.320246793     3.396723546
 H        3.546029310    16.507913540    -0.301784395
 H        4.058688539    18.591114490     0.875749400
 H        3.304039549    13.142966905     1.483457158
 H        3.159772991    14.767340029    -1.180852891
 H        0.628164479    12.649943546     0.740125960
 H       -0.529008516    11.047882697     2.168775562
 H        1.707274585     7.810428914     0.423477774
 H        2.848689316     9.356615003    -1.049598690
 H       -0.929322556     8.849284554     2.959642941
 H        0.729502639     6.614617681     1.600591545
 H       -1.919251776     7.503315797     4.204273820
 H       -3.007237407     5.832659656     5.597250864
 H       -0.679308916     2.730551242     3.620353969
 H        0.393170684     4.434474333     2.264930821
 H        1.926118398    18.903694999     2.385811995
 H        0.473450543    19.657647723     3.143638486
 H        2.532406011    20.802491013     3.825607150
 H        1.749533704    20.097598066     5.232459909
 H        4.158367367    19.719328694     5.427244582
 H        3.349155181    18.143596307     5.191528135
 H        2.263546353    -1.026587295     0.084545943
 H        2.259889602     0.581896904     0.853011011
 H        2.276794191     0.440059651    -0.924739328
 H       -4.706247157     2.708547044     7.275602031
 H       -4.957077339     3.933948586     6.007422162
 H       -3.913397032     4.298113430     7.407777840
 H       -2.340176539     1.101099650     4.058704875
 C       -3.835731409     0.199135271     5.344296048
 C       -4.297119301     1.883736493     3.547329214
 H       -2.037507167     1.404290876     7.631960627
 C       -0.285475983     1.428307176     6.348676665
 C       -0.923305888     3.242788035     7.946724398
 H        2.223971638    13.283409592    -3.587027086
 C        0.978221912    11.506428371    -3.515985127
 C        0.443003733    13.697384052    -2.417408606
 H        4.016566343    10.624461500    -2.601027253
 C        5.063673775    12.472870468    -3.039831154
 C        5.298903639    11.154331780    -0.926496185
 H       -4.742538445    14.078566933    -2.059622980
 C       -2.974107580    13.241228438    -2.988565846
 C       -5.225874280    12.158885619    -2.960397048
 H       -6.290864952    11.635692462    -0.015700977
 C       -5.600236009    12.168543298     1.977637519
 C       -6.455357621    13.779815136     0.271766636
 H       -0.192554306    -1.934400580    -1.512696156
 C       -2.181442050    -1.058874204    -1.549362846
 C       -0.214481182    -0.225808025    -2.853616900
 H       -1.766178922    -0.819636669     1.516323610
 C       -0.290925368    -2.406258531     1.570893020
 C       -0.149899983    -0.261561769     2.855314110
 H       -3.129756230    -0.233892332     6.064522495
 H       -4.069670891    -0.599135454     4.625087351
 H       -4.769509585     0.411707991     5.880815273
 H       -3.941390343     2.731848087     2.943861438
 H       -5.263881662     2.169379447     3.981498352
 H       -4.504198665     1.065256845     2.843326727
 H       -0.586852198     0.589294993     5.708709130
 H        0.370258080     1.003900292     7.122523988
 H        0.344982916     2.101796173     5.750162798
 H       -1.703245635     3.756021411     8.523459315
 H       -0.342486399     4.011155976     7.415854989
 H       -0.240896977     2.795592329     8.683445227
 H        1.735299142    10.814978694    -3.906563794
 H        0.365479700    11.808531110    -4.377119575
 H        0.315689013    10.931219912    -2.852433192
 H        0.800422230    14.648399407    -1.998260238
 H       -0.237306646    13.252641075    -1.674634784
 H       -0.167988764    13.957095405    -3.292895282
 H        4.464274284    12.738553035    -3.919430251
 H        5.959286716    11.963339729    -3.423438267
 H        5.415972773    13.406240296    -2.578532794
 H        4.863664169    10.460956482    -0.193743329
 H        5.686942672    12.019619613    -0.369004842
 H        6.173788468    10.643727163    -1.351994063
 H       -2.264097784    13.940216450    -2.526279722
 H       -3.211995517    13.652783771    -3.979557426
 H       -2.446730882    12.294151656    -3.171650613
 H       -6.212704575    12.052527075    -2.492138973
 H       -4.825556768    11.147619752    -3.123982927
 H       -5.405821020    12.582500950    -3.958688788
 H       -5.050156288    11.250106012     2.222753776
 H       -6.608608927    12.044508692     2.396755598
 H       -5.133490655    12.991750301     2.536974613
 H       -6.679521664    14.000661966    -0.779588051
 H       -5.927640095    14.647755094     0.691264844
 H       -7.425595121    13.732326551     0.786765167
 H       -2.565968240    -1.625167455    -0.691602426
 H       -2.499139490    -1.608670691    -2.447106314
 H       -2.708263330    -0.094155559    -1.579117096
 H        0.874702489    -0.150973110    -2.965295866
 H       -0.633003703     0.784275715    -2.971361664
 H       -0.571922702    -0.808222824    -3.715023020
 H       -0.681534706    -2.957722634     0.705967408
 H       -0.729970123    -2.881020495     2.460388318
 H        0.789261773    -2.594746372     1.624700929
 H       -0.376686623     0.812773189     2.919938699
 H        0.930991813    -0.379747008     3.009793733
 H       -0.639819164    -0.738487350     3.716623988

