187   

Si        0.000000000     0.000000000     0.000000000
 C        1.865739831     0.000000000     0.000000000
 C       -0.674712408     1.712581383     0.000000000
 C        0.163167584     2.819328202    -0.168882460
 C       -0.360003363     4.112119892    -0.167047061
 C       -1.731051860     4.328114809    -0.005658620
 C       -2.569742185     3.218068335     0.161606975
 C       -2.049701988     1.926772140     0.167123972
 C       -2.319948545     5.662883691     0.002352463
 C       -1.623510973     6.802950113    -0.141319820
 C       -2.205250182     8.140138265    -0.134326340
 C       -1.355042782     9.241285058    -0.295373748
 C       -1.862471630    10.537883914    -0.295701734
 C       -3.233364542    10.767755183    -0.132144595
 C       -4.084432179     9.667035010     0.024015817
 C       -3.575879678     8.368623847     0.016633410
Si       -3.919743690    12.477968950    -0.130395485
 C       -5.289129556    12.586214692     1.080894230
 C       -5.390655280    13.538992736     2.017170874
 C       -6.472634995    13.646926553     2.994311325
 C       -6.431027300    14.708551953     3.911640813
 C       -7.420486282    14.871494850     4.862781362
 C       -8.535809998    14.004999719     4.900004036
 C       -8.578575026    12.940726830     3.976365418
 C       -7.547731048    12.759538156     3.060857063
 N       -9.542850238    14.162596240     5.859923078
 C       -9.660925129    15.432650569     6.593084994
 C      -10.834047695    13.507891169     5.608650642
 C       -9.758445809    15.194036051     8.115378181
 C       -8.618364316    14.311872833     8.668441751
 N       -7.300105374    14.833823624     8.275555889
 C       -6.350856272    13.971308664     7.713651418
 C       -6.728465392    12.720006920     7.177438455
 C       -5.784973152    11.874648217     6.624624205
 C       -4.438016455    12.256130075     6.523447745
 C       -4.066863233    13.505317975     7.023302168
 C       -4.998617614    14.356169028     7.607494839
 C       -6.811655897    15.910408616     9.148339620
 C       -3.497594476    11.308885974     5.927106084
 C       -2.185908189    11.524941208     5.761246589
Si       -1.032116544    10.317156720     5.009839756
 C       -0.040083859    11.151975176     3.700349847
 C        0.412659034    12.463316166     3.890816078
 C        1.164043609    13.105481205     2.907333555
 C        1.487226848    12.451281896     1.715150744
 C        1.038550718    11.138151494     1.527508314
 C        0.285902514    10.496354578     2.507654906
 C        2.269939120    13.079583797     0.657068712
 C        2.760733727    14.329422334     0.706853887
 C        3.543388791    14.954414883    -0.353870437
 C        3.860312488    14.294700402    -1.544085327
 C        4.611489405    14.929311082    -2.533183933
 C        5.056852876    16.242825205    -2.355207116
 C        4.738923042    16.907367584    -1.162802226
 C        3.993441956    16.269507303    -0.175368069
Si        6.049104343    17.095022632    -3.650382168
 C        6.032793261    16.151578718    -5.259548584
 C        5.324779405    18.837344478    -3.902180465
 C        7.851173310    17.265966379    -3.061527467
 C        0.176496611     9.663817045     6.327155720
 C       -2.038376854     8.843528859     4.346509708
 C       -2.615120397    13.794306953     0.306096692
 C       -4.568791408    12.840772218    -1.882330906
 C       -0.599416690    -0.930902746    -1.548559912
 C       -0.664397337    -0.893201484     1.543657313
 H        1.243268331     2.713707289    -0.302952829
 H        0.314903747     4.956492025    -0.295649836
 H       -3.640500860     3.364152218     0.290167005
 H       -2.751956540     1.100174529     0.307358663
 H       -3.404834919     5.685188439     0.136830999
 H       -0.537806229     6.777606363    -0.275782323
 H       -0.286028639     9.084655042    -0.423393576
 H       -1.146568647    11.358843998    -0.416015229
 H       -5.164044030     9.782616911     0.156603392
 H       -4.258464770     7.530183164     0.134606222
 H       -6.050152890    11.798686039     0.985530636
 H       -4.642052521    14.337157081     2.132397778
 H       -5.591745517    15.405435261     3.894837419
 H       -7.317294305    15.666382892     5.600220601
 H       -9.404815200    12.239752048     3.978786405
 H       -7.593639250    11.912472297     2.375672285
 H      -11.555534952    13.760360090     6.402355466
 H      -10.699921042    12.410662730     5.632156389
 H      -11.273551429    13.789626647     4.636862568
 H       -7.656906939    16.477147559     9.571028043
 H       -6.212034466    16.622822201     8.552265212
 H       -6.192121038    15.536782763     9.981084275
 H       -7.774252295    12.415806605     7.176220773
 H       -6.103802300    10.906860377     6.234882638
 H       -3.028066274    13.829566840     6.952710956
 H       -4.667395782    15.318852738     7.978671922
 H       -3.987445882    10.375079011     5.613040009
 H       -1.719376416    12.467317308     6.082134295
 H        0.191015969    13.027160248     4.801583421
 H        1.500734719    14.125548196     3.077897852
 H        1.281501141    10.609919516     0.607916266
 H       -0.045359726     9.472928734     2.298278624
 H        2.443204825    12.448586844    -0.219864157
 H        2.588654290    14.961154128     1.582745403
 H        3.522258909    13.273300106    -1.709398881
 H        4.828783396    14.361721800    -3.442189803
 H        5.059145546    17.935001575    -0.969002456
 H        3.757699276    16.801361729     0.744408677
 H       -8.774890025    16.084663851     6.403238130
 H      -10.547563429    16.008879890     6.247233200
 H       -9.758922237    16.176717862     8.622002858
 H      -10.722144391    14.712319150     8.363542997
 H       -8.703055572    14.241776188     9.775540202
 H       -8.766561784    13.275750182     8.280309019
 H        2.263713910    -1.029867050     0.035918783
 H        2.263213205     0.539262210     0.878909397
 H        2.273446928     0.482672073    -0.905559671
 H        6.595253184    16.690415294    -6.042859493
 H        4.999862568    16.014780250    -5.627966921
 H        6.487853423    15.151357493    -5.152022452
 H        5.412100308    19.355629123    -2.903079126
 C        6.092094151    19.678177954    -4.937929541
 C        3.834424389    18.805317546    -4.286596410
 H        8.409307208    17.735417473    -3.922545253
 C        8.016980559    18.178173291    -1.832946191
 C        8.502240572    15.904488408    -2.755819517
 H        0.835711899     8.920446593     5.791370888
 C        1.081814241    10.761717681     6.913554505
 C       -0.531803610     8.931916637     7.480891012
 H       -2.689859578     8.522714869     5.213019085
 C       -2.958034443     9.248174373     3.183498313
 C       -1.207393087     7.619439880     3.923603884
 H       -3.197417808    14.757900479     0.409329062
 C       -1.931122854    13.504601124     1.651641210
 C       -1.534510535    14.027607970    -0.764143267
 H       -3.667848140    12.773990684    -2.559138362
 C       -5.602012039    11.808507370    -2.367671170
 C       -5.168987560    14.251033492    -2.021031235
 H       -0.077761001    -1.931272912    -1.520084065
 C       -2.116626065    -1.187922581    -1.574768845
 C       -0.198087153    -0.220119746    -2.854254545
 H       -1.789085050    -0.881040220     1.445878855
 C       -0.215130990    -2.361606906     1.645495167
 C       -0.298421537    -0.164375141     2.849421173
 H        7.153677278    19.808838017    -4.691221662
 H        5.662731699    20.689185525    -4.992553712
 H        6.033014625    19.265162421    -5.953614316
 H        3.210497427    18.265175493    -3.560077938
 H        3.655068788    18.358101936    -5.273262909
 H        3.434780396    19.828330093    -4.333321382
 H        7.644787933    19.197882770    -1.993072280
 H        9.082883034    18.277452693    -1.580638110
 H        7.527053084    17.776404025    -0.934813303
 H        8.504723005    15.219529940    -3.613417802
 H        8.024780577    15.381986572    -1.914317862
 H        9.555161458    16.045487497    -2.472412475
 H        1.670302266    11.291084869     6.151318651
 H        1.810785168    10.317570942     7.606098411
 H        0.525216205    11.511579000     7.491298587
 H       -1.126688453     8.070793700     7.149576868
 H       -1.193880440     9.589736588     8.061706779
 H        0.210156306     8.537796409     8.189430307
 H       -3.627740158    10.089849779     3.411733734
 H       -3.604130204     8.406862212     2.897379821
 H       -2.403416490     9.525188475     2.272988881
 H       -0.563482795     7.230724673     4.721822903
 H       -0.575184166     7.804035353     3.044979656
 H       -1.877824225     6.794557232     3.638782425
 H       -2.629001474    13.374659745     2.491359544
 H       -1.264844335    14.333483394     1.927855368
 H       -1.297000790    12.604267578     1.626603867
 H       -1.942216797    14.303879751    -1.744077902
 H       -0.871214672    13.164727487    -0.909616816
 H       -0.879377046    14.857008844    -0.457272848
 H       -5.224085361    10.776737915    -2.353095301
 H       -5.879189931    12.016065041    -3.410903547
 H       -6.535642430    11.833685120    -1.790071151
 H       -4.458602280    15.051999550    -1.777871816
 H       -6.062287052    14.398299584    -1.397537678
 H       -5.485208633    14.425762806    -3.058946284
 H       -2.478571150    -1.754439188    -0.707581261
 H       -2.380356422    -1.783388488    -2.461092606
 H       -2.704720209    -0.262170459    -1.643970019
 H        0.884741447    -0.072296954    -2.956213196
 H       -0.679656815     0.761483178    -2.971282810
 H       -0.508948972    -0.820479105    -3.721186836
 H       -0.505536034    -2.966442942     0.776790575
 H       -0.681896017    -2.836949597     2.520496371
 H        0.869291488    -2.469189497     1.780473301
 H       -0.640949366     0.880120731     2.873554710
 H        0.780533048    -0.163525396     3.053114738
 H       -0.774684824    -0.663005154     3.705595989

