187   

Si        0.000000000     0.000000000     0.000000000
 C        1.865226824     0.000000000     0.000000000
 C       -0.662197189     1.716348792     0.000000000
 C        0.061547586     2.734265738    -0.631009595
 C       -0.422202914     4.040143955    -0.642358421
 C       -1.633349256     4.361944677    -0.023542105
 C       -2.357374851     3.341658969     0.605300850
 C       -1.880163536     2.032671483     0.613885793
 C       -2.162523868     5.721499150    -0.020817992
 C       -1.542668946     6.761753505    -0.602097727
 C       -2.034366341     8.132841580    -0.623240920
 C       -3.233935264     8.524967687    -0.026456903
 C       -3.651012929     9.855759093    -0.081231163
 C       -2.896458113    10.809892999    -0.769331553
 C       -1.692603518    10.417710138    -1.371433058
 C       -1.262382964     9.099198959    -1.281482330
Si       -3.390394767    12.576968526    -0.878935655
 C       -3.575160552    13.058832460    -2.634476374
 C       -3.946959093    12.206352487    -3.600092321
 C       -4.100407097    12.571883438    -5.009244112
 C       -4.495374761    11.592414819    -5.930972296
 C       -4.653949541    11.891531296    -7.276434679
 C       -4.374102361    13.187148167    -7.756265017
 C       -3.974392874    14.172641350    -6.829639044
 C       -3.861929293    13.866250587    -5.481283243
 N       -4.521994912    13.529390114    -9.110134569
 C       -4.772188092    12.468720759   -10.094395005
 C       -3.658445261    14.610019732    -9.615702840
 C       -3.544168198    11.592986597   -10.394904372
 C       -3.816700575    10.597299390   -11.535571941
 N       -4.617277590     9.417914283   -11.170725294
 C       -4.130112905     8.570847275   -10.163898925
 C       -2.752074399     8.538793614    -9.859695977
 C       -2.275027849     7.701400020    -8.865258923
 C       -3.125513407     6.810872741    -8.194268305
 C       -4.483314504     6.816666694    -8.521360990
 C       -4.986519907     7.680038634    -9.486195844
 C       -6.071249974     9.636981715   -11.215395215
 C       -2.554493423     5.955993213    -7.155149121
 C       -3.236195196     5.058869918    -6.429345121
Si       -2.431460866     4.028849863    -5.144109148
 C       -1.017553566     4.971803974    -4.434198773
 C       -1.138050318     6.365442720    -4.352287811
 C       -0.106075670     7.135779769    -3.826210403
 C        1.069269762     6.535919776    -3.363453802
 C        1.186327132     5.143046472    -3.440409707
 C        0.153413257     4.367444751    -3.967329601
 C        2.166418659     7.321433378    -2.807243058
 C        2.144855920     8.660454822    -2.693156416
 C        3.217233711     9.481093175    -2.144624613
 C        4.414114528     8.943676361    -1.666552349
 C        5.410617921     9.772925877    -1.150676953
 C        5.228157692    11.158306629    -1.102223910
 C        4.025888734    11.699217728    -1.578644116
 C        3.033006806    10.869827974    -2.090327445
Si        6.528709162    12.271315449    -0.426089155
 C        8.143848856    11.372662058    -0.176335057
 C        6.759706564    13.720123298    -1.638861495
 C        5.949059121    12.967476904     1.248538324
 C       -3.696082062     3.664288457    -3.772254529
 C       -1.827300738     2.383602458    -5.876199178
 C       -5.048718864    12.873792971     0.010192832
 C       -2.072168902    13.674555668    -0.054515099
 C       -0.623318893    -0.842006617    -1.592745619
 C       -0.667622186    -0.956212355     1.500831365
 H        1.017322559     2.547783904    -1.128653990
 H        0.157754452     4.816386806    -1.144276977
 H       -3.302898751     3.570388919     1.092239379
 H       -2.488234664     1.277438625     1.117896830
 H       -3.114705537     5.849879625     0.498108893
 H       -0.587883764     6.616157900    -1.125023683
 H       -3.849383456     7.795116608     0.494563863
 H       -4.585380393    10.109519232     0.425492457
 H       -1.064065413    11.119953918    -1.928543020
 H       -0.306273402     8.812701667    -1.718502347
 H       -3.378521093    14.118864788    -2.848213509
 H       -4.151478051    11.142899085    -3.406331416
 H       -4.685401335    10.572775619    -5.589122290
 H       -4.974285784    11.105040961    -7.953355962
 H       -3.769815838    15.186022498    -7.158634009
 H       -3.568570984    14.652376056    -4.784206151
 H       -3.712924721    14.673484004   -10.714129023
 H       -2.601000762    14.485995856    -9.328598777
 H       -4.022559671    15.575902941    -9.219038907
 H       -6.326766994    10.414122090   -11.953169625
 H       -6.500408026     9.928030384   -10.241470339
 H       -6.561377032     8.703337995   -11.551067457
 H       -2.053499237     9.178165689   -10.390162061
 H       -1.212443510     7.723596873    -8.616552598
 H       -5.166259185     6.136339334    -8.011046029
 H       -6.047900925     7.654591859    -9.707537872
 H       -1.473469714     6.122461924    -7.021675618
 H       -4.310278837     4.889935208    -6.579759625
 H       -2.039654869     6.896258918    -4.683114632
 H       -0.224628252     8.218462332    -3.795107034
 H        2.093966801     4.656393488    -3.090004806
 H        0.295476027     3.284178078    -3.997275989
 H        3.029504209     6.742396565    -2.471266427
 H        1.279579508     9.233275131    -3.046517389
 H        4.579284876     7.868421784    -1.693033769
 H        6.326959812     9.296194274    -0.792163858
 H        3.828720249    12.775015447    -1.564963904
 H        2.104507483    11.307742557    -2.453472860
 H       -5.619140098    11.843319121    -9.729027176
 H       -5.139330710    12.953646068   -11.028353123
 H       -2.681415096    12.231268397   -10.661795459
 H       -3.232336802    11.055027324    -9.475578500
 H       -4.315546193    11.112446618   -12.387117242
 H       -2.846178278    10.227222950   -11.947613213
 H        2.262752824    -1.029117364     0.050342091
 H        2.259238990     0.551069618     0.873537631
 H        2.278056133     0.472816222    -0.907927456
 H        8.926511038    12.056522533     0.197997132
 H        8.507679063    10.940433315    -1.126125330
 H        8.045028509    10.549440615     0.552916346
 H        5.756865683    14.234889928    -1.700003543
 C        7.793860267    14.757556930    -1.166769234
 C        7.132583885    13.248368140    -3.056045939
 H        6.807911063    13.589408559     1.633762378
 C        4.710433624    13.875655049     1.146484111
 C        5.661645184    11.858939590     2.277834499
 H       -4.615546868     3.272073816    -4.295039971
 C       -3.222071688     2.594960027    -2.775020358
 C       -4.089888206     4.932580279    -2.994241077
 H       -1.356341893     1.819171626    -5.018301108
 C       -2.964315357     1.516169483    -6.444569351
 C       -0.755060243     2.578946862    -6.962933947
 H       -4.941352442    12.404003911     1.030234853
 C       -5.380332318    14.364108748     0.208656893
 C       -6.231664620    12.201428140    -0.710558730
 H       -2.476071544    14.726634519    -0.117514202
 C       -1.856724826    13.331207989     1.430308054
 C       -0.708925008    13.651004141    -0.769278509
 H       -0.141846237    -1.860908929    -1.613329682
 C       -2.150598429    -1.032022879    -1.618350338
 C       -0.199808406    -0.084118723    -2.865189958
 H       -1.792903503    -0.927628408     1.413329027
 C       -0.237689569    -2.434236270     1.525660954
 C       -0.281082030    -0.300610666     2.839206514
 H        7.554402855    15.196221300    -0.189439960
 H        7.835958326    15.595599326    -1.877641892
 H        8.812668155    14.351784886    -1.110825239
 H        6.403871705    12.545512997    -3.484629365
 H        8.120136028    12.770749084    -3.103819358
 H        7.170543768    14.106824022    -3.741658415
 H        4.851720544    14.733860976     0.477765227
 H        4.470712960    14.294122169     2.135034877
 H        3.811691421    13.334209979     0.818205077
 H        6.524187947    11.208860161     2.472714884
 H        4.818770130    11.214872740     1.987485430
 H        5.388320356    12.304715581     3.245047944
 H       -3.011598106     1.623409251    -3.238660664
 H       -3.998560142     2.414457242    -2.017850494
 H       -2.324544725     2.899065563    -2.211592259
 H       -4.459435906     5.745794062    -3.632305444
 H       -3.259805402     5.336281711    -2.391755778
 H       -4.896666538     4.704528760    -2.284295874
 H       -3.736759470     1.270943233    -5.704091537
 H       -2.563859640     0.556213351    -6.800179522
 H       -3.462849935     1.978424579    -7.307735322
 H        0.124033749     3.137580785    -6.613312260
 H       -1.139764410     3.095230114    -7.854231822
 H       -0.384279761     1.603939907    -7.308158618
 H       -4.635690292    14.899263532     0.811489350
 H       -6.336220192    14.467592230     0.742491138
 H       -5.499158004    14.906329335    -0.739351423
 H       -6.099971203    11.122445001    -0.866764081
 H       -6.438051522    12.649465265    -1.694040793
 H       -7.150143370    12.317720846    -0.118688631
 H       -2.768822272    13.414858991     2.035038508
 H       -1.127694691    14.023239322     1.875680766
 H       -1.451062210    12.319862898     1.580461184
 H       -0.774003701    13.859431891    -1.845318316
 H       -0.180763818    12.695051048    -0.640888435
 H       -0.050611620    14.422324724    -0.344497426
 H       -2.524304824    -1.658801150    -0.798985206
 H       -2.452131829    -1.533743752    -2.549080928
 H       -2.700461311    -0.079815470    -1.589248863
 H        0.887939999     0.013654241    -2.971572794
 H       -0.635118850     0.925283436    -2.923387929
 H       -0.548507410    -0.622660465    -3.757838593
 H       -0.544393236    -2.991123437     0.630865806
 H       -0.703497180    -2.946147805     2.380320478
 H        0.846164173    -2.563564078     1.644917014
 H       -0.595188339     0.750127981     2.916385824
 H        0.798412910    -0.337071467     3.037904313
 H       -0.766431943    -0.828855843     3.672150636

