187   

Si        0.000000000     0.000000000     0.000000000
 C        1.865198355     0.000000000     0.000000000
 C       -0.675989747     1.712354382     0.000000000
 C        0.113518786     2.795855421     0.398690060
 C       -0.405110303     4.090465507     0.396216145
 C       -1.724386608     4.331159596     0.003590599
 C       -2.515898737     3.243844127    -0.389949206
 C       -2.000534448     1.950525525    -0.390394462
 C       -2.308843555     5.668109082    -0.014635556
 C       -1.659739087     6.791411701     0.335698461
 C       -2.242975415     8.128768201     0.317915268
 C       -3.562138917     8.370676803    -0.074520390
 C       -4.079161081     9.665956358    -0.076394240
 C       -3.290208485    10.746473079     0.330363235
 C       -1.967602934    10.506753583     0.726848787
 C       -1.450731505     9.214278483     0.714985812
Si       -3.943579003    12.466418084     0.338971236
 C       -3.229591104    13.454827625     1.701087674
 C       -2.834208772    12.940417614     2.873505291
 C       -2.262134538    13.725686337     3.967516351
 C       -1.886353449    13.068164130     5.148211730
 C       -1.340309260    13.763360001     6.213844148
 C       -1.195373729    15.167827100     6.152445269
 C       -1.573702085    15.828844445     4.967367349
 C       -2.075725840    15.108432515     3.891520171
 N       -0.641024232    15.854589755     7.239649404
 C       -0.924756840    15.350772927     8.592608678
 C       -0.530267831    17.315094572     7.139569222
 C       -2.411430311    15.117336018     8.920001637
 C       -3.214830592    16.398342742     9.206119672
 N       -2.850233497    17.146366506    10.426453929
 C       -1.801819451    18.087218080    10.258222694
 C       -2.042018250    19.165606243     9.382646063
 C       -1.062242986    20.121445264     9.171325100
 C        0.169150258    20.052629886     9.841332484
 C        0.390076581    18.997501867    10.729620643
 C       -0.584423870    18.030222339    10.951971281
 C       -2.779434933    16.310889847    11.634564084
 C        1.170726844    21.089655763     9.581172515
 C        2.377089329    21.126331586    10.160884137
Si        3.665528469    22.391831134     9.876700775
 C        5.264246596    21.559276248     9.512137580
 C        5.273220186    20.256436003     8.998314421
 C        6.479171910    19.618466946     8.719391903
 C        7.701296960    20.269310913     8.934041278
 C        7.687527626    21.572442215     9.439744210
 C        6.482389603    22.212807553     9.725226098
 C        8.937737450    19.558264100     8.626237273
 C       10.172436688    20.062812301     8.789878272
 C       11.408022345    19.350265400     8.481514710
 C       11.421349868    18.047751951     7.976062835
 C       12.626304579    17.403814194     7.695099808
 C       13.846799607    18.047920106     7.921493199
 C       13.836320246    19.354071120     8.429455000
 C       12.631854181    19.996246943     8.702778174
Si       15.444691528    17.210504331     7.555415854
 C       15.215339730    15.377360874     7.297363380
 C       16.204553499    17.960576989     5.979747873
 C       16.634209622    17.525719897     9.007661226
 C        3.212985854    23.528715819     8.421971839
 C        3.833239440    23.447691791    11.450030994
 C       -3.486962649    13.299304044    -1.309608674
 C       -5.838174000    12.452274375     0.510821794
 C       -0.651211540    -0.911768483    -1.539258792
 C       -0.623565762    -0.915359004     1.547612257
 H        1.152449589     2.670446707     0.716018867
 H        0.231800593     4.916853151     0.706562422
 H       -3.546248027     3.409165877    -0.699209432
 H       -2.665699359     1.142424591    -0.707078857
 H       -3.351054864     5.707269691    -0.344333865
 H       -0.617078610     6.751736993     0.665044674
 H       -4.199140194     7.545439487    -0.386608422
 H       -5.115144082     9.792874753    -0.401682284
 H       -1.304766828    11.315728765     1.053482862
 H       -0.419861688     9.047835909     1.022189678
 H       -3.159282599    14.533572413     1.497114897
 H       -2.904395870    11.867490320     3.104155802
 H       -2.012145967    11.987168455     5.225954700
 H       -1.018072939    13.220888921     7.097489410
 H       -1.474556373    16.905307534     4.876638650
 H       -2.344101245    15.641984507     2.978522954
 H       -0.039158306    17.722981075     8.042967957
 H       -1.500143715    17.825567269     7.023301058
 H        0.118256361    17.572455863     6.281863067
 H       -3.730754594    15.760157779    11.740754925
 H       -2.681711735    16.963981963    12.520385189
 H       -1.952532518    15.583924646    11.641154821
 H       -3.006431230    19.246418861     8.884710755
 H       -1.259861301    20.947278340     8.487336493
 H        1.337531311    18.926123757    11.266450905
 H       -0.385198723    17.226662621    11.654837027
 H        0.835372367    21.843093717     8.856642904
 H        2.679572512    20.357696217    10.892563142
 H        4.348966526    19.701696197     8.805532121
 H        6.468725658    18.603216892     8.326896393
 H        8.623249106    22.099940566     9.615154307
 H        6.533591863    23.231062141    10.120169312
 H        8.797978615    18.545365900     8.236828530
 H       10.313636671    21.075383491     9.178940004
 H       10.485386321    17.522194393     7.795246031
 H       12.572685323    16.385932298     7.299012755
 H       14.759280471    19.906760497     8.626727875
 H       12.643865247    21.011505550     9.094667619
 H       -0.367544818    14.389339813     8.709008053
 H       -0.473573707    16.047235462     9.335728937
 H       -2.898582435    14.583113242     8.076620087
 H       -2.485077557    14.424887230     9.779486848
 H       -3.150609234    17.079087432     8.327840420
 H       -4.294731131    16.133609105     9.313018720
 H        2.262724351    -1.029969255    -0.039182390
 H        2.276960693     0.480815141     0.904419170
 H        2.259446404     0.541971932    -0.879008139
 H       16.183943714    14.876424200     7.120570158
 H       14.567291602    15.163026953     6.429651236
 H       14.756063860    14.907127209     8.185884800
 H       17.150662829    17.375754796     5.789342524
 C       15.290666966    17.803655162     4.750683361
 C       16.584510285    19.445131154     6.125563295
 H       16.761270202    18.645948244     9.066353271
 C       16.060928901    17.046074668    10.353502074
 C       18.027679287    16.904127561     8.806154882
 H        2.186967829    23.937338165     8.654099533
 C        4.173872878    24.720161728     8.259756738
 C        3.137445465    22.769493805     7.084587159
 H        4.620273454    24.223518655    11.221000225
 C        2.534057245    24.183115588    11.822709222
 C        4.312427030    22.628183091    12.661438816
 H       -3.912694855    14.342808250    -1.259975950
 C       -1.964164115    13.413091245    -1.503148975
 C       -4.095293377    12.592224171    -2.533189318
 H       -6.228767628    11.870965467    -0.373617878
 C       -6.303140205    11.742100523     1.794933602
 C       -6.461928026    13.858837658     0.465386380
 H       -1.775845304    -0.920179637    -1.442236272
 C       -0.296611386    -0.184903356    -2.849115743
 C       -0.177631269    -2.373324905    -1.632888014
 H       -0.147293151    -1.937572344     1.512244105
 C       -0.186989707    -0.230360667     2.855687862
 C       -2.151381986    -1.101027019     1.573722680
 H       15.039482963    16.759495240     4.524159357
 H       15.791463493    18.199786602     3.855583562
 H       14.347004600    18.359874182     4.846324153
 H       17.312567670    19.631871730     6.925037949
 H       15.714360278    20.093033935     6.302188747
 H       17.050167252    19.806023968     5.196788956
 H       15.084369373    17.490994530    10.592610950
 H       16.736257114    17.329323860    11.173443785
 H       15.949235993    15.955077608    10.407998021
 H       18.533205081    17.255435435     7.897360633
 H       18.006646642    15.806734358     8.774441425
 H       18.683798843    17.174321752     9.646472490
 H        4.205778161    25.377175375     9.138230116
 H        3.851669138    25.350460755     7.418001417
 H        5.204128587    24.411720871     8.031984814
 H        2.439167017    21.921763252     7.097553243
 H        4.114770010    22.384232988     6.758815352
 H        2.791972255    23.442804984     6.287521152
 H        2.174216727    24.858085131    11.035528997
 H        2.697513335    24.808345609    12.712293859
 H        1.711751741    23.498632187    12.075651936
 H        5.261883342    22.103234390    12.484742464
 H        3.576872262    21.882099206    12.991849535
 H        4.484710383    23.292128162    13.520696026
 H       -1.461168549    13.959782882    -0.693655899
 H       -1.741500427    13.960305200    -2.430016953
 H       -1.471876895    12.434512514    -1.598802649
 H       -5.191935650    12.556775282    -2.515461328
 H       -3.729086747    11.563144811    -2.658818831
 H       -3.820438156    13.128611933    -3.452955301
 H       -5.947682045    10.705401463     1.874353741
 H       -7.400613635    11.694850391     1.824623645
 H       -5.991680657    12.267838194     2.709339168
 H       -6.241811699    14.403322581    -0.461633560
 H       -6.150649484    14.491222798     1.308631219
 H       -7.557392261    13.785739312     0.524898597
 H       -0.651984870     0.855132951    -2.878404506
 H       -0.766630160    -0.694152808    -3.702433387
 H        0.782183313    -0.171117955    -3.053682395
 H       -0.459227081    -2.978331510    -0.761438986
 H        0.908461662    -2.463985858    -1.766530226
 H       -0.635805867    -2.860627694    -2.505844792
 H        0.901674108    -0.132466219     2.954658020
 H       -0.521870271    -0.821490323     3.720113073
 H       -0.624610500     0.770656824     2.979934299
 H       -2.535312013    -1.671678674     0.718697418
 H       -2.696764348    -0.147445362     1.615252225
 H       -2.446319915    -1.661338358     2.472907494

