187   

Si        0.000000000     0.000000000     0.000000000
 C        1.865268305     0.000000000     0.000000000
 C       -0.680132914     1.710530557     0.000000000
 C        0.126718492     2.808653260     0.314251345
 C       -0.400058684     4.100188678     0.310904566
 C       -1.743785835     4.322984412    -0.000502423
 C       -2.551996270     3.221112142    -0.311314434
 C       -2.028931399     1.931102426    -0.310347824
 C       -2.338539772     5.655291567    -0.016693946
 C       -1.677796130     6.792500911     0.259363039
 C       -2.274631333     8.124003618     0.242575842
 C       -1.468239594     9.227818309     0.551474971
 C       -1.993903666    10.517119256     0.548184031
 C       -3.343916479    10.731409813     0.242930837
 C       -4.151224691     9.631763768    -0.065771667
 C       -3.619230428     8.342792662    -0.069252083
Si       -4.045076646    12.431900475     0.236696202
 C       -5.866870777    12.347552525     0.358552493
 C       -6.738967222    12.981282039    -0.436005572
 C       -8.193947476    12.882346169    -0.298740398
 C       -9.007852713    13.594554690    -1.193074878
 C      -10.388774793    13.534021669    -1.105012973
 C      -11.002815426    12.778627115    -0.085236290
 C      -10.192234753    12.063597928     0.809827042
 C       -8.807759806    12.104919126     0.685888015
 N      -12.420363511    12.749701603    -0.039547455
 C      -13.052245458    14.086514508     0.016740761
 C      -13.013313414    11.803047023     0.921924203
 C      -12.522819555    14.961654910     1.168322894
 C      -13.527286937    16.030045426     1.630992615
 N      -14.825711428    15.522187957     2.130976351
 C      -14.776315521    14.305939240     2.845257890
 C      -13.853539950    14.195440042     3.907913805
 C      -13.768017434    13.022518784     4.637915062
 C      -14.613905331    11.936455670     4.364499264
 C      -15.545010580    12.060555493     3.331375703
 C      -15.639862272    13.229611958     2.584498274
 C      -15.922422333    15.681154115     1.162515449
 C      -14.481423945    10.718802234     5.167185093
 C      -15.233444885     9.624400030     4.994666121
Si      -15.115407365     8.078485362     5.962268666
 C      -16.785248865     7.584403075     6.552048253
 C      -17.797249911     8.542893273     6.686548005
 C      -19.063239410     8.172214751     7.132996211
 C      -19.345034344     6.840834471     7.465865707
 C      -18.330175259     5.888168836     7.336563139
 C      -17.062853196     6.254477600     6.885560331
 C      -20.686728659     6.501943152     7.928923647
 C      -21.087633652     5.266747625     8.274522965
 C      -22.429180684     4.927581229     8.737587144
 C      -23.444972921     5.878079734     8.867564755
 C      -24.713890547     5.509521845     9.314286638
 C      -24.996333032     4.177937819     9.634305545
 C      -23.979537600     3.222217142     9.503571406
 C      -22.712524689     3.594187085     9.063033953
Si      -26.665609304     3.674642478    10.225231062
 C      -27.923341515     5.027212335     9.963929003
 C      -27.182492278     2.104136771     9.281968322
 C      -26.585258246     3.266328417    12.082706817
 C      -14.404711519     6.724407043     4.829562753
 C      -13.964062467     8.284960663     7.461245850
 C       -3.382309963    13.393524816     1.739069017
 C       -3.501670930    13.325636746    -1.351287635
 C       -0.653889987    -0.904579798    -1.542306615
 C       -0.615450534    -0.922985406     1.546695401
 H        1.185080296     2.697279418     0.565577395
 H        0.250020697     4.938222359     0.555617531
 H       -3.601470356     3.372586315    -0.556928018
 H       -2.707587378     1.111130497    -0.561606562
 H       -3.400668585     5.678508192    -0.278244654
 H       -0.615864022     6.770024256     0.520691741
 H       -0.418439509     9.078672486     0.796039597
 H       -1.317181575    11.339830669     0.794608224
 H       -5.211850164     9.741768807    -0.315305412
 H       -4.266191550     7.503076273    -0.316552968
 H       -6.215882764    11.709504669     1.188219634
 H       -6.426332484    13.629274303    -1.265084682
 H       -8.549274074    14.196698473    -1.977325515
 H      -11.003812067    14.065389243    -1.826794656
 H      -10.632566861    11.474486772     1.609416995
 H       -8.198223269    11.530318202     1.384830242
 H      -14.106085178    11.764216881     0.766961467
 H      -12.839043628    12.061280095     1.980304452
 H      -12.622617528    10.789354092     0.726937565
 H      -15.980321462    16.742896987     0.862468371
 H      -16.884140794    15.440584344     1.650385628
 H      -15.820509239    15.068259830     0.253022981
 H      -13.214032559    15.039860747     4.154365218
 H      -13.040167257    12.949472962     5.446970597
 H      -16.218625382    11.232802756     3.102618772
 H      -16.374986562    13.287013799     1.788122325
 H      -13.700872387    10.790065674     5.935758236
 H      -16.006313605     9.583755887     4.208482890
 H      -17.632240310     9.598229616     6.445724681
 H      -19.840045804     8.928924735     7.226290863
 H      -18.523126283     4.847151057     7.588648260
 H      -16.310019109     5.465744690     6.803399926
 H      -21.379506148     7.347005069     7.981698367
 H      -20.395030883     4.421613305     8.221911374
 H      -23.252232721     6.920584190     8.620848182
 H      -25.467108499     6.297939047     9.397092259
 H      -24.142618193     2.166488873     9.738147666
 H      -21.935505339     2.837917518     8.969339528
 H      -12.884344010    14.588897767    -0.961194589
 H      -14.151041921    13.938311202     0.102770331
 H      -12.236185455    14.315937015     2.023669366
 H      -11.579448475    15.453454787     0.860486129
 H      -13.075223342    16.617305393     2.467341447
 H      -13.709779589    16.755972456     0.809204257
 H        2.262993099    -1.029629473    -0.044787399
 H        2.275427368     0.475523000     0.908066848
 H        2.260817544     0.546800898    -0.875289198
 H      -28.930040023     4.701423201    10.281321357
 H      -27.987061326     5.308175833     8.896958686
 H      -27.671884293     5.936279569    10.537927784
 H      -26.401659902     1.326126334     9.525856405
 C      -28.551175671     1.549702876     9.715357029
 C      -27.183724909     2.306905364     7.755939490
 H      -27.645533151     3.029984968    12.388114370
 C      -25.711778221     2.041934759    12.409578641
 C      -26.099339544     4.458217478    12.927810376
 H      -14.309960051     5.800240144     5.469850571
 C      -15.336929872     6.392339526     3.650874370
 C      -13.008702426     7.071059811     4.282634453
 H      -12.989110188     8.679766023     7.052561508
 C      -14.505718330     9.303136292     8.481255464
 C      -13.672757705     6.961590408     8.191146594
 H       -2.262964989    13.444966299     1.606368072
 C       -3.919635740    14.833292898     1.816791204
 C       -3.669869774    12.676919093     3.070454627
 H       -4.041645687    14.316588502    -1.349201006
 C       -1.989810943    13.608691894    -1.407789831
 C       -3.908074029    12.559129665    -2.623236266
 H       -1.778627046    -0.907876727    -1.445639865
 C       -0.296197841    -0.174261402    -2.849408713
 C       -0.185969436    -2.367456023    -1.640816710
 H       -0.123495444    -1.937842100     1.512421017
 C       -0.191288014    -0.230648600     2.854976039
 C       -2.140004159    -1.133181248     1.572173312
 H      -28.604972936     1.311695601    10.785559101
 H      -28.761938134     0.611652938     9.181369848
 H      -29.381992812     2.228490348     9.481448914
 H      -26.216978728     2.653473847     7.363335929
 H      -27.951164170     3.015598525     7.417612543
 H      -27.396911602     1.354884293     7.249269491
 H      -26.040692074     1.124245773    11.905924536
 H      -25.751568443     1.830024085    13.488094216
 H      -24.650913506     2.198493287    12.168469034
 H      -26.723839450     5.354173397    12.818496580
 H      -25.062119001     4.746247145    12.703541697
 H      -26.121667063     4.196947213    13.995554599
 H      -16.348894422     6.099183837     3.964288273
 H      -14.935110516     5.542486126     3.080841833
 H      -15.437302048     7.221731688     2.937415834
 H      -12.261850371     7.237312830     5.069667360
 H      -13.011383662     7.957953699     3.632622332
 H      -12.628425667     6.241299623     3.669680419
 H      -14.704186911    10.294344736     8.051380173
 H      -13.773817524     9.456499756     9.286801495
 H      -15.432413257     8.965709277     8.967997686
 H      -13.184967053     6.211422890     7.555879315
 H      -14.573665442     6.503042791     8.622961575
 H      -12.988413938     7.140258802     9.033498985
 H       -3.676961990    15.436825384     0.932713772
 H       -3.475721712    15.355027571     2.676647168
 H       -5.008866578    14.876254003     1.960007542
 H       -3.277334591    11.650763329     3.106329860
 H       -4.741161048    12.631334381     3.309589227
 H       -3.191554216    13.216978504     3.899925771
 H       -1.632819761    14.238465641    -0.583102224
 H       -1.743644945    14.148764330    -2.333723124
 H       -1.382953135    12.692323478    -1.419849637
 H       -4.984805942    12.349890145    -2.686090410
 H       -3.381870171    11.599116566    -2.727920902
 H       -3.654907488    13.147470781    -3.516280546
 H       -0.649771060     0.866511495    -2.875604117
 H       -0.766641439    -0.679637684    -3.704827476
 H        0.782722559    -0.161940877    -3.053092280
 H       -0.469927216    -2.974423835    -0.771469416
 H        0.899792119    -2.461904328    -1.774624614
 H       -0.645817766    -2.850115926    -2.515499839
 H        0.895476713    -0.114052698     2.954891896
 H       -0.516736375    -0.827134534     3.719330330
 H       -0.645546471     0.763021978     2.978753593
 H       -2.516793248    -1.697924904     0.710105727
 H       -2.699996401    -0.188994495     1.628403206
 H       -2.424330896    -1.710529513     2.464022234

