187   

Si        0.000000000     0.000000000     0.000000000
 C        1.865507307     0.000000000     0.000000000
 C       -0.681609140     1.709909069     0.000000000
 C        0.153370488     2.824396816    -0.125961728
 C       -0.379139422     4.113637323    -0.124131348
 C       -1.756347453     4.317066755    -0.006894137
 C       -2.592335145     3.199324328     0.118052564
 C       -2.063032919     1.912032000     0.125384900
 C       -2.357591525     5.646307985    -0.000285181
 C       -1.670192350     6.796306396    -0.103773232
 C       -2.270831728     8.126130843    -0.097239919
 C       -3.648585442     8.328810767     0.020073573
 C       -4.181514687     9.617608840     0.021957774
 C       -3.340735234    10.731210542    -0.054018301
 C       -1.957493107    10.531852434    -0.159694013
 C       -1.430753048     9.244270110    -0.188412281
Si       -3.993193095    12.451070989    -0.055005776
 C       -2.882252147    13.498959123     0.947310445
 C       -2.367997216    14.671394353     0.553910894
 C       -1.478911257    15.496527788     1.372892634
 C       -1.006388267    16.707112571     0.845157577
 C       -0.162812601    17.525539811     1.577899328
 C        0.272971935    17.129496831     2.858993503
 C       -0.202207776    15.920363585     3.391263072
 C       -1.086140658    15.132903916     2.662891073
 N        1.134181111    17.996317083     3.572567737
 C        2.332706156    18.465818339     2.850216399
 C        1.418991706    17.623720278     4.968556704
 C        3.409577116    17.390159537     2.612383372
 C        3.261633838    16.706962152     1.238398573
 N        3.751027312    15.312324659     1.165345316
 C        2.811869548    14.393714591     1.753659912
 C        1.915435200    13.785913713     0.862470544
 C        0.973737058    12.885801672     1.339066911
 C        0.889525946    12.592541721     2.708159266
 C        1.794522691    13.197197614     3.585038365
 C        2.764944911    14.076079533     3.114304503
 C        5.126904794    15.146755992     1.667451353
 C       -0.122673326    11.634057422     3.164230559
 C       -0.284494366    11.286784684     4.446855317
Si       -1.514450351    10.105659109     5.103537753
 C       -0.702226084     8.874684575     6.201063373
 C        0.687770912     8.709690126     6.184653237
 C        1.295776378     7.774879603     7.019245341
 C        0.530628489     6.976316175     7.878938202
 C       -0.857984573     7.139047046     7.887205059
 C       -1.469639585     8.076869147     7.056973972
 C        1.213711986     6.011260449     8.734203567
 C        0.600336731     5.190976156     9.604139381
 C        1.283250921     4.225947738    10.459398505
 C        2.670742644     4.061660744    10.452776901
 C        3.282430422     3.126476149    11.287586835
 C        2.517847258     2.337928118    12.152919077
 C        1.125799844     2.500781146    12.161581689
 C        0.517842248     3.431005327    11.323310594
Si        3.309438999     1.099401610    13.260846025
 C        5.158393700     1.333369946    13.342196252
 C        2.546052619     1.277004505    14.995576314
 C        2.944383407    -0.653758332    12.615314319
 C       -2.810627409    11.105482176     6.069700900
 C       -2.355847248     9.156496347     3.685938550
 C       -4.089376836    13.059902980    -1.853363652
 C       -5.735951554    12.500586385     0.703654886
 C       -0.593778647    -0.936724123    -1.547356706
 C       -0.663323925    -0.888792520     1.546718920
 H        1.238182729     2.727696965    -0.224197442
 H        0.293405734     4.964714322    -0.216268595
 H       -3.667790114     3.335944554     0.213567887
 H       -2.763191073     1.078829307     0.234042597
 H       -3.447079145     5.654952267     0.097450411
 H       -0.580445155     6.786423406    -0.202982851
 H       -4.321094838     7.477163203     0.099415053
 H       -5.267768948     9.713091360     0.096548466
 H       -1.255755665    11.370438596    -0.227397153
 H       -0.354269458     9.106128947    -0.276054815
 H       -2.661346559    13.084178295     1.945769893
 H       -2.574364389    15.111501452    -0.430538600
 H       -1.312230707    17.016624418    -0.154211752
 H        0.158343850    18.479104375     1.167281826
 H        0.122031843    15.575268746     4.368474503
 H       -1.445954826    14.198916717     3.102511455
 H        1.987884348    18.435702162     5.452263579
 H        1.987463021    16.686522718     5.079856239
 H        0.464263637    17.526705888     5.517389008
 H        5.797747153    15.787140086     1.070158736
 H        5.437271470    14.099054540     1.506642582
 H        5.268436942    15.389443956     2.730356125
 H        1.970078351    14.030651447    -0.197765208
 H        0.281725302    12.416527164     0.639227276
 H        1.755681056    12.975041005     4.651551481
 H        3.475332253    14.516513846     3.807169641
 H       -0.729708340    11.218016020     2.348053808
 H        0.343308179    11.732649860     5.237844334
 H        1.334041724     9.299287007     5.526757068
 H        2.378059785     7.662816666     6.997332077
 H       -1.475010321     6.529617717     8.544603159
 H       -2.558930599     8.159595781     7.106318460
 H        2.301802698     5.991231527     8.622698907
 H       -0.487827240     5.210301245     9.714731752
 H        3.288939111     4.665408001     9.790835150
 H        4.371538908     3.043169566    11.237003393
 H        0.477450816     1.912585735    12.817090170
 H       -0.564694750     3.541633633    11.342738688
 H        2.013939610    18.918357152     1.885201590
 H        2.763915835    19.305015917     3.444481083
 H        4.413805239    17.842679044     2.696501097
 H        3.358985518    16.631805669     3.416580484
 H        2.190892000    16.702409724     0.923315253
 H        3.813943423    17.283248246     0.463377924
 H        2.262813114    -1.030477131     0.024975658
 H        2.263679607     0.529496896     0.884687558
 H        2.273296738     0.492223902    -0.900339029
 H        5.620650781     0.611029471    14.038465930
 H        5.413955512     2.347774737    13.698740082
 H        5.632395046     1.193393123    12.354934591
 H        1.441879479     1.079083748    14.868798769
 C        3.092733209     0.261117074    16.014304873
 C        2.706748391     2.697242535    15.567380401
 H        3.511554605    -1.352645395    13.295904214
 C        1.454885409    -1.036903614    12.674449845
 C        3.452398456    -0.870793171    11.178076984
 H       -3.603313089    10.366475335     6.382885535
 C       -2.234888451    11.750845493     7.342888056
 C       -3.480065612    12.195407522     5.213786147
 H       -2.512360885     9.896743622     2.846255299
 C       -1.450068812     8.026180841     3.165228265
 C       -3.729228722     8.564188253     4.045719826
 H       -4.402209288    14.142827047    -1.799597451
 C       -2.732300455    12.988375586    -2.577462100
 C       -5.136386553    12.304017800    -2.690542220
 H       -6.367989649    11.811295273     0.072414207
 C       -5.770742249    11.987546338     2.154464172
 C       -6.372071448    13.901262071     0.657134577
 H       -0.059830155    -1.930742341    -1.519945518
 C       -2.107441019    -1.213608777    -1.572363065
 C       -0.203038286    -0.220897098    -2.853551849
 H       -1.788108601    -0.874158963     1.450852692
 C       -0.217009940    -2.358001690     1.650113493
 C       -0.292862383    -0.158396563     2.850089847
 H        2.950046052    -0.782896808    15.706912719
 H        2.567677018     0.373084713    16.974122897
 H        4.159878710     0.403314628    16.230448682
 H        2.287732963     3.477166955    14.915373720
 H        3.752726071     2.962736299    15.770236522
 H        2.174831943     2.780443229    16.525819042
 H        1.033907024    -0.994682505    13.686913685
 H        1.319941992    -2.072538110    12.329758454
 H        0.827706280    -0.414114309    12.021113576
 H        4.530349966    -0.697780005    11.065123975
 H        2.935190459    -0.237912180    10.442430426
 H        3.274261873    -1.910479257    10.868313578
 H       -1.775890364    11.025834336     8.029327726
 H       -3.036570982    12.243084242     7.911313263
 H       -1.486676411    12.526585083     7.130092684
 H       -3.947016651    11.803059250     4.299576350
 H       -2.783116539    12.992104246     4.915968591
 H       -4.280953096    12.684865157     5.785122219
 H       -0.499798843     8.387370948     2.749548935
 H       -1.954484704     7.485203256     2.349552707
 H       -1.215527543     7.267849971     3.925184152
 H       -4.462368278     9.319839890     4.353339080
 H       -3.675186169     7.801351451     4.833426843
 H       -4.157024169     8.062681472     3.164091357
 H       -1.931780296    13.541922300    -2.067365702
 H       -2.818003516    13.425448005    -3.582193902
 H       -2.381838546    11.956157786    -2.721892873
 H       -6.156840440    12.392134029    -2.296233593
 H       -4.909685951    11.233620761    -2.796122070
 H       -5.167040046    12.711143393    -3.711752212
 H       -5.324735144    10.990781311     2.280572410
 H       -6.810774159    11.904435883     2.499810994
 H       -5.267931662    12.671596981     2.853789431
 H       -6.472823107    14.300917256    -0.360034707
 H       -5.819722563    14.642740140     1.252524700
 H       -7.388528567    13.867841849     1.074546813
 H       -2.463350744    -1.775504986    -0.699625441
 H       -2.362182817    -1.821913212    -2.452569997
 H       -2.707242507    -0.296450488    -1.652404361
 H        0.877853183    -0.060151798    -2.957096605
 H       -0.696264896     0.754931287    -2.969632171
 H       -0.507956561    -0.824654551    -3.720199234
 H       -0.509062794    -2.963688072     0.782662131
 H       -0.684174235    -2.830949906     2.526258185
 H        0.867273785    -2.467541412     1.784807859
 H       -0.631377354     0.887635584     2.873118623
 H        0.786329834    -0.161004331     3.052920892
 H       -0.769844060    -0.653072982     3.708278819

