187   

Si        0.000000000     0.000000000     0.000000000
 C        1.864850222     0.000000000     0.000000000
 C       -0.655419458     1.719926075     0.000000000
 C        0.027725640     2.719530691     0.702029139
 C       -0.450993380     4.028258644     0.715226595
 C       -1.611255787     4.373756631     0.017151053
 C       -2.293941270     3.371607747    -0.684017982
 C       -1.827671745     2.059138655    -0.686250361
 C       -2.145032127     5.730805935     0.005469654
 C       -1.593794194     6.774128089     0.649009155
 C       -2.128233536     8.131541718     0.636971970
 C       -1.452344999     9.128473562     1.353112870
 C       -1.926228425    10.437424266     1.369649140
 C       -3.097959934    10.777786322     0.681246084
 C       -3.775367771     9.783200834    -0.031602726
 C       -3.291850881     8.475600097    -0.055999685
Si       -3.722006238    12.509158299     0.704947318
 C       -5.314300497    12.610799972    -0.192954644
 C       -5.567726795    13.518088344    -1.145412859
 C       -6.822431961    13.634732924    -1.886153637
 C       -6.929626070    14.640937618    -2.854493743
 C       -8.090728575    14.806773927    -3.592568988
 C       -9.240484270    14.050538161    -3.294610958
 C       -9.144699827    13.062105949    -2.289623038
 C       -7.948708658    12.848918441    -1.620290528
 N      -10.434624203    14.186567708    -4.015096806
 C      -10.568665103    15.212622639    -5.059605426
 C      -11.676664198    13.932327947    -3.264478238
 C      -11.034717356    16.604180844    -4.587749249
 C       -9.879055652    17.607396559    -4.391242830
 N       -9.990839840    18.454155071    -3.182400745
 C      -10.018685096    17.667055328    -1.985149719
 C       -8.796571761    17.129681845    -1.547758161
 C       -8.749154861    16.357649535    -0.396306376
 C       -9.911352973    16.110486138     0.348435201
 C      -11.119808213    16.658286461    -0.089360585
 C      -11.180424087    17.435475745    -1.240524594
 C      -11.076204397    19.446592560    -3.291045460
 C       -9.826376636    15.289915045     1.561234542
 C      -10.895624294    15.014631202     2.318775614
Si      -10.957084214    14.018751321     3.843258142
 C       -9.726629331    12.664964231     3.984150217
 C       -9.060935195    12.119040844     2.883204993
 C       -8.133997866    11.088671315     3.055761591
 C       -7.868618894    10.577109503     4.328060795
 C       -8.544187958    11.122054660     5.429460833
 C       -9.461510211    12.152165645     5.262100156
 C       -6.918228312     9.505254869     4.592025414
 C       -6.174376159     8.854220238     3.682358386
 C       -5.241658905     7.786618552     4.034567432
 C       -5.058131329     7.365899210     5.355394998
 C       -4.161463933     6.344560230     5.664287799
 C       -3.437904929     5.707363894     4.652014557
 C       -3.624020916     6.122538186     3.326946516
 C       -4.512870191     7.150523091     3.023162665
Si       -2.250204717     4.357166490     5.043357089
 C       -1.931072078     4.217120655     6.875895849
 C       -2.917225277     2.693338034     4.403064065
 C       -0.639400776     4.749921109     4.112576758
 C      -10.727827621    15.213276396     5.310337106
 C      -12.699079855    13.253344694     3.932071959
 C       -4.006757130    13.046729706     2.511149115
 C       -2.445026216    13.678529614    -0.083964641
 C       -0.651454546    -0.943047637    -1.518155259
 C       -0.637734125    -0.869606488     1.570125571
 H        0.946734208     2.514306236     1.258734564
 H        0.108843671     4.789910655     1.258218075
 H       -3.201705576     3.616780456    -1.232037840
 H       -2.406804187     1.318933533    -1.244542099
 H       -3.056622668     5.858588057    -0.585279641
 H       -0.681129652     6.647526563     1.240130192
 H       -0.548808654     8.879063247     1.906113976
 H       -1.360285046    11.172897491     1.948585178
 H       -4.690477451     9.993083267    -0.593997229
 H       -3.831674755     7.721879168    -0.626089833
 H       -6.070093818    11.874600210     0.117780518
 H       -4.826095381    14.267103211    -1.459227338
 H       -6.074402791    15.285338664    -3.062824436
 H       -8.107378538    15.551225992    -4.383692425
 H      -10.006758091    12.450944702    -2.040754385
 H       -7.896057322    12.064395399    -0.864085303
 H      -12.558251100    14.254336157    -3.840349793
 H      -11.695549269    14.444522210    -2.286004982
 H      -11.778254373    12.844171433    -3.095971310
 H      -10.826124593    20.143061229    -4.110511911
 H      -11.121936596    20.040877030    -2.361829337
 H      -12.071104868    19.021697490    -3.488220168
 H       -7.890624208    17.323229114    -2.120497422
 H       -7.796284410    15.932791535    -0.074580017
 H      -12.037020393    16.483428728     0.474068113
 H      -12.132635748    17.851593303    -1.554807096
 H       -8.817893849    14.917823869     1.778248707
 H      -11.886545232    15.426785528     2.054652118
 H       -9.237005947    12.480966016     1.865113472
 H       -7.621134694    10.680010102     2.186384110
 H       -8.350065252    10.736303022     6.428574084
 H       -9.954026543    12.535415382     6.160788521
 H       -6.838152230     9.236124595     5.652049830
 H       -6.228898367     9.100035935     2.619412348
 H       -5.613675267     7.839226080     6.162992673
 H       -4.055778890     6.067674166     6.716182011
 H       -3.084394536     5.661197523     2.492044941
 H       -4.630795250     7.467646602     1.986956407
 H       -9.615123672    15.283709478    -5.628068614
 H      -11.311536509    14.809489598    -5.792637773
 H      -11.758611951    17.013817615    -5.314964942
 H      -11.604603775    16.499778713    -3.642927744
 H       -8.901311943    17.075771959    -4.318575754
 H       -9.796080658    18.279251663    -5.272587329
 H        2.262816302    -1.028729316    -0.058578040
 H        2.279253724     0.465747257     0.910862064
 H        2.257865139     0.557968959    -0.869658779
 H       -1.196062240     3.421905413     7.092563246
 H       -2.852914595     3.978729265     7.434410168
 H       -1.526715861     5.161948226     7.281265009
 H       -2.118491455     1.933228677     4.643533760
 C       -4.214143277     2.261383134     5.112389977
 C       -3.159273228     2.667213540     2.885169826
 H       -0.937323906     4.764269739     3.021962074
 C       -0.069657302     6.136429464     4.460789462
 C        0.461703301     3.691144039     4.289991634
 H      -10.935848752    14.612601457     6.241759368
 C       -9.287883293    15.749736215     5.397422121
 C      -11.705963655    16.400696321     5.283885669
 H      -13.421919487    14.118512435     3.898741834
 C      -12.987870824    12.340725067     2.726275921
 C      -12.958712518    12.466431714     5.227741343
 H       -2.986477901    13.304491066     2.917504685
 C       -4.902648641    14.292927165     2.628511572
 C       -4.591612810    11.930763171     3.390927504
 H       -2.953801437    14.683931633    -0.153918093
 C       -1.158645293    13.864377143     0.740282812
 C       -2.052803995    13.235719585    -1.506085748
 H       -1.777684127    -0.904108089    -1.449524126
 C       -0.234811755    -0.287298798    -2.847300775
 C       -0.234850319    -2.424896949    -1.541854188
 H       -0.126303958    -1.874386586     1.594774649
 C       -0.270058071    -0.112146868     2.859260195
 C       -2.158824654    -1.105629249     1.557468989
 H       -4.109453194     2.176061569     6.201106032
 H       -4.525396691     1.269699212     4.754343117
 H       -5.055613582     2.939351151     4.910111104
 H       -2.258177803     2.880169940     2.290893182
 H       -3.942249647     3.367579565     2.562651668
 H       -3.495155132     1.667858880     2.573166507
 H       -0.789054014     6.952623711     4.298338507
 H        0.799751879     6.358530007     3.826586768
 H        0.278744180     6.207890941     5.499118020
 H        0.154103721     2.688754125     3.962168567
 H        0.815514349     3.609900453     5.325653143
 H        1.340086421     3.956158846     3.684163710
 H       -8.532585361    14.955864403     5.485940409
 H       -9.173991098    16.383275220     6.288153078
 H       -9.011585546    16.375504083     4.536311775
 H      -12.760567430    16.098011785     5.285449453
 H      -11.547964049    17.064280499     4.421762394
 H      -11.564457125    17.023295028     6.179192419
 H      -12.871610143    12.845499435     1.757320204
 H      -14.025699825    11.981304082     2.765371453
 H      -12.353054435    11.442909873     2.710051404
 H      -12.852903742    13.073677510     6.135609059
 H      -12.305527032    11.588035369     5.332792462
 H      -13.989132797    12.082342078     5.234361797
 H       -4.513350474    15.164524434     2.088049903
 H       -4.988057801    14.594821985     3.682318687
 H       -5.930163996    14.112830229     2.278901056
 H       -4.004889676    11.001391307     3.377146916
 H       -5.626147696    11.671270033     3.123829907
 H       -4.623733486    12.253659871     4.441383597
 H       -1.338705557    14.241897922     1.754755083
 H       -0.505819295    14.603081821     0.252314920
 H       -0.565914502    12.943175532     0.822092184
 H       -2.908872160    13.119304004    -2.184733324
 H       -1.497966356    12.286417269    -1.517356693
 H       -1.392689566    13.983689490    -1.966962200
 H       -0.533307943     0.767441791    -2.926921777
 H       -0.712734113    -0.806617688    -3.690231843
 H        0.847374516    -0.337434872    -3.028253853
 H       -0.563021125    -2.983265163    -0.655505012
 H        0.849741649    -2.564062882    -1.641978577
 H       -0.689613127    -2.928582489    -2.407323802
 H        0.807491646     0.057680838     2.975797990
 H       -0.586780482    -0.691084638     3.738697373
 H       -0.776912530     0.862722297     2.934954155
 H       -2.494613376    -1.735766209     0.724241396
 H       -2.736696147    -0.170715068     1.524964628
 H       -2.466560057    -1.624247165     2.477124781

