187   

Si        0.000000000     0.000000000     0.000000000
 C        1.865735453     0.000000000     0.000000000
 C       -0.678150234     1.711005632     0.000000000
 C        0.168474419     2.821504976    -0.069705299
 C       -0.356140755     4.113429724    -0.069024589
 C       -1.734242928     4.327948844     0.023361393
 C       -2.579859647     3.213951380     0.094965875
 C       -2.061374746     1.922101548     0.074709988
 C       -2.321109583     5.664540324     0.027218630
 C       -1.602594527     6.796762129    -0.056401687
 C       -2.149925485     8.147998992    -0.055787591
 C       -1.260177772     9.227151663    -0.150134364
 C       -1.731097938    10.535674856    -0.153764481
 C       -3.106567659    10.797644495    -0.067737935
 C       -3.995069870     9.724654272     0.031955372
 C       -3.516356474     8.413935913     0.045333155
Si       -3.661143004    12.547355339    -0.077678766
 C       -5.447425574    12.757155811    -0.409956924
 C       -6.272592096    13.503177869     0.336697877
 C       -7.702302802    13.678183825     0.080573374
 C       -8.447520030    14.490405575     0.946924508
 C       -9.804108728    14.692211411     0.753476522
 C      -10.462424865    14.118184996    -0.356201086
 C       -9.716181938    13.290673026    -1.216547602
 C       -8.370101124    13.050600336    -0.973500293
 N      -11.842114498    14.332462664    -0.539284450
 C      -12.377699693    15.634046896    -0.086098184
 C      -12.407955456    13.892294323    -1.826215243
 C      -11.619904228    16.880011207    -0.587153231
 C      -12.162093183    17.448620085    -1.913968838
 N      -11.132013458    17.783559127    -2.927737164
 C      -10.577181841    16.593825931    -3.507799742
 C      -11.289721364    16.047449055    -4.587572567
 C      -10.826999534    14.897823973    -5.209802572
 C       -9.665315371    14.255514428    -4.756801896
 C       -8.954617108    14.818617513    -3.693315802
 C       -9.385150776    15.995388819    -3.089111261
 C      -10.128165029    18.745341257    -2.439598237
 C       -9.215930081    13.043301092    -5.447062806
 C       -8.123357649    12.351924134    -5.099395238
Si       -7.511538004    10.833981661    -5.920221339
 C       -7.204265653     9.580832481    -4.603610375
 C       -7.227694974     9.953311278    -3.255493927
 C       -6.996696602     9.013523339    -2.253710490
 C       -6.758986780     7.673696125    -2.572625727
 C       -6.741212726     7.299270528    -3.922176043
 C       -6.955728123     8.241102206    -4.926334691
 C       -6.513387283     6.663240896    -1.548313327
 C       -6.510122873     6.925845787    -0.230391955
 C       -6.270460931     5.952165574     0.827495830
 C       -6.010930551     4.602350375     0.577206776
 C       -5.788805864     3.715261074     1.630176264
 C       -5.779155736     4.167164427     2.955592470
 C       -6.018336003     5.523613715     3.204248520
 C       -6.260701718     6.403892481     2.153441592
Si       -5.482755006     2.970040882     4.325696255
 C       -6.819821447     1.669846993     4.324952727
 C       -3.780526824     2.148208831     4.088462895
 C       -5.449837852     3.883040472     5.997986896
 C       -8.775660372    10.222906022    -7.199037486
 C       -5.860030557    11.207113943    -6.782068775
 C       -3.198898305    13.340090326     1.589637824
 C       -2.743961095    13.454436685    -1.481613684
 C       -0.607051757    -0.945525916    -1.535771368
 C       -0.650416459    -0.873740291     1.561393568
 H        1.255178559     2.720096236    -0.131897573
 H        0.325337157     4.959668067    -0.134299828
 H       -3.657464479     3.360857213     0.165494237
 H       -2.770739771     1.090995949     0.121852872
 H       -3.412782068     5.693375966     0.110874282
 H       -0.511533498     6.752789338    -0.135816594
 H       -0.190701097     9.042353940    -0.223623822
 H       -0.988931015    11.335313023    -0.231594559
 H       -5.075790228     9.874480769     0.103297726
 H       -4.220316169     7.586286215     0.133413746
 H       -5.807146932    12.219863939    -1.302142106
 H       -5.932973745    14.051438481     1.226043170
 H       -7.957041091    14.968050307     1.795354111
 H      -10.358607176    15.295274090     1.466136639
 H      -10.184459226    12.818431002    -2.077233977
 H       -7.824654923    12.376296276    -1.636679762
 H      -13.489356466    14.100667810    -1.854361868
 H      -12.291713686    12.796568622    -1.917240054
 H      -11.936429567    14.373555004    -2.701561585
 H      -10.643644855    19.689774300    -2.193409482
 H       -9.413079836    18.960943805    -3.253098539
 H       -9.560420689    18.419803986    -1.554997964
 H      -12.193883811    16.544825790    -4.935220164
 H      -11.375820155    14.490848326    -6.058276334
 H       -8.037359246    14.348110174    -3.333263590
 H       -8.804554445    16.424254528    -2.275886127
 H       -9.872444125    12.748451268    -6.274680066
 H       -7.479020686    12.695088145    -4.270951860
 H       -7.425777087    10.981904894    -2.938272741
 H       -7.012782522     9.336003996    -1.212981174
 H       -6.553074722     6.262544174    -4.193580074
 H       -6.919028224     7.891448696    -5.961371303
 H       -6.318782520     5.656052989    -1.923696379
 H       -6.716769828     7.940479545     0.130471036
 H       -6.002715897     4.229927523    -0.445455481
 H       -5.624941411     2.663183503     1.377980076
 H       -6.012822152     5.939787585     4.215505491
 H       -6.445379893     7.455169605     2.370023351
 H      -13.451958050    15.693813461    -0.366429900
 H      -12.365342887    15.615629024     1.030445330
 H      -11.654734073    17.663331470     0.192009582
 H      -10.543165593    16.634761502    -0.696055725
 H      -12.873557770    16.733646285    -2.384181767
 H      -12.740636696    18.379762894    -1.723596799
 H        2.263506749    -1.029623656     0.041681812
 H        2.264162003     0.544385022     0.875153373
 H        2.272970390     0.477180728    -0.908781387
 H       -6.661073510     0.932737995     5.131362480
 H       -6.853785444     1.121676454     3.367274682
 H       -7.814179663     2.126582034     4.480575856
 H       -3.531512071     1.675616501     5.082700354
 C       -3.780160720     1.030204820     3.031520543
 C       -2.672216076     3.158841370     3.746274001
 H       -4.783208112     4.781452066     5.845095334
 C       -6.840658093     4.384090247     6.431403598
 C       -4.853853942     3.053035523     7.150277940
 H       -9.057124888    11.135458938    -7.802963314
 C       -8.237920202     9.167780905    -8.181385045
 C      -10.053335495     9.676352713    -6.535346885
 H       -5.533856162    10.231760216    -7.247634060
 C       -5.986542642    12.255568038    -7.900737231
 C       -4.763938370    11.652739839    -5.797977775
 H       -3.628674572    14.382970154     1.567303476
 C       -3.819482517    12.587452025     2.781234961
 C       -1.682180526    13.461591451     1.819528094
 H       -1.648128269    13.408556268    -1.221077459
 C       -2.940686225    12.766593993    -2.844008494
 C       -3.144167405    14.935038421    -1.603029772
 H       -0.070290179    -1.937938742    -1.509638229
 C       -2.120602675    -1.225679263    -1.544460899
 C       -0.231112536    -0.234685723    -2.849073183
 H       -1.775374207    -0.788724941     1.514296067
 C       -0.293175941    -2.369071920     1.627134234
 C       -0.175443977    -0.189874886     2.856664168
 H       -4.499750287     0.229885258     3.241637524
 H       -2.788799539     0.551992362     3.000095647
 H       -3.969919828     1.402013662     2.015668901
 H       -2.573042597     3.970274979     4.477788546
 H       -2.806567444     3.622770319     2.756054250
 H       -1.696125598     2.653701413     3.710864780
 H       -7.353631095     4.988242956     5.671375065
 H       -6.749699952     5.022981417     7.321598875
 H       -7.517633204     3.564323628     6.707987808
 H       -3.806149355     2.770502640     6.983382315
 H       -5.420061366     2.136400947     7.359454562
 H       -4.865196997     3.640235634     8.080215682
 H       -7.349565841     9.498432315    -8.734838737
 H       -9.002125498     8.938437226    -8.938681162
 H       -7.995852122     8.212154830    -7.697589356
 H      -10.536264483    10.391834804    -5.855124807
 H       -9.875083223     8.753451370    -5.964609011
 H      -10.800004064     9.424870735    -7.301315959
 H       -6.699439931    11.974098396    -8.686174110
 H       -5.016781764    12.390154463    -8.401368199
 H       -6.279001044    13.247197593    -7.526769787
 H       -4.591838092    10.934150909    -4.982759217
 H       -4.967817772    12.633463517    -5.346407245
 H       -3.803848607    11.749227116    -6.324930817
 H       -4.912737192    12.496491111     2.723539846
 H       -3.602294141    13.119133307     3.718161021
 H       -3.412105471    11.572796386     2.901503698
 H       -1.168747492    14.046930435     1.046417379
 H       -1.182008293    12.485515401     1.892869640
 H       -1.487455665    13.975478647     2.772216580
 H       -2.635730460    11.709878630    -2.844907194
 H       -2.326560202    13.262527832    -3.608590229
 H       -3.979525058    12.812948464    -3.200561429
 H       -2.950010923    15.513754161    -0.691111715
 H       -4.203509736    15.072127608    -1.864807876
 H       -2.563413970    15.417806648    -2.401766652
 H       -2.471861265    -1.763450159    -0.654825112
 H       -2.378319599    -1.858528384    -2.406219248
 H       -2.721633437    -0.311553613    -1.647898911
 H        0.848130422    -0.069856931    -2.963245963
 H       -0.728807766     0.738992049    -2.965001450
 H       -0.541512440    -0.843682818    -3.709996631
 H       -0.668056848    -2.943594004     0.770281455
 H       -0.742442180    -2.823585488     2.522102874
 H        0.787406322    -2.548806317     1.701800079
 H       -0.424163502     0.880777390     2.900439391
 H        0.906857580    -0.283076722     3.017283904
 H       -0.657224342    -0.655564118     3.728354483

