187   

Si        0.000000000     0.000000000     0.000000000
 C        1.865323252     0.000000000     0.000000000
 C       -0.674613763     1.712917142     0.000000000
 C        0.153328836     2.815268777     0.234195424
 C       -0.370250528     4.107560568     0.231481717
 C       -1.733113737     4.326599503     0.013900139
 C       -2.562404579     3.221009442    -0.215173422
 C       -2.040591040     1.930412857    -0.226034426
 C       -2.320608892     5.662039507     0.003183031
 C       -1.625138488     6.794986454     0.197539818
 C       -2.192987212     8.137890634     0.190670314
 C       -3.551411700     8.385444203    -0.024246027
 C       -4.045350914     9.689384669    -0.021128987
 C       -3.182745854    10.777929367     0.154957255
 C       -1.819338275    10.530827679     0.356502887
 C       -1.333123073     9.226780925     0.380935682
Si       -3.850011367    12.494386791     0.156738653
 C       -2.680026023    13.709596640     0.858635613
 C       -1.769815269    13.446200552     1.805136931
 C       -0.844501780    14.441556390     2.348895736
 C        0.064822368    14.039762982     3.340408384
 C        0.960886771    14.941938022     3.887424861
 C        0.983544144    16.275309978     3.434018806
 C        0.077063421    16.682424697     2.447035222
 C       -0.834971307    15.770964296     1.924081535
 N        1.932996245    17.143584989     4.044876037
 C        3.334214453    16.803574485     3.723125366
 C        1.638662641    18.581821822     3.933459373
 C        3.805948434    17.156513833     2.298072030
 C        3.349326292    16.144007902     1.235088470
 N        3.812629718    14.763329655     1.529009468
 C        3.351915259    13.852369869     0.502203772
 C        3.768337318    13.936315585    -0.833020918
 C        3.284545633    13.027834431    -1.764005093
 C        2.386830417    12.018665243    -1.384298723
 C        1.974733819    11.948798817    -0.049792904
 C        2.444532920    12.862888695     0.889787027
 C        5.282596675    14.662577567     1.674995074
 C        1.916857297    11.093690447    -2.420877321
 C        1.062421797    10.083592284    -2.213898433
Si        0.492928617     8.943036216    -3.531370401
 C        1.773929109     8.733393767    -4.834561530
 C        3.128940084     8.725574292    -4.476045929
 C        4.115128173     8.568321636    -5.445685998
 C        3.774113233     8.401632508    -6.794641915
 C        2.422229251     8.401833707    -7.148169456
 C        1.432017550     8.564447393    -6.179627327
 C        4.843306187     8.240525885    -7.774417965
 C        4.653238031     8.078159825    -9.094821285
 C        5.721988756     7.917008786   -10.075061050
 C        7.074221224     7.916577681    -9.723240926
 C        8.063692154     7.759333568   -10.693734443
 C        7.720660795     7.591377560   -12.038841227
 C        6.364892738     7.590118741   -12.394153656
 C        5.379836412     7.753218091   -11.424236694
Si        9.013327576     7.382540159   -13.332491843
 C       10.691910651     7.067769304   -12.581863254
 C        8.507656292     5.924708283   -14.447284880
 C        9.108051525     8.956174250   -14.399345305
 C        0.156402427     7.246921520    -2.740825589
 C       -1.132956632     9.581430764    -4.277068721
 C       -4.195203153    13.035893040    -1.634773509
 C       -5.475976030    12.533155961     1.140228028
 C       -0.657475021    -0.890208577    -1.548651844
 C       -0.611040256    -0.930000889     1.543675549
 H        1.225926973     2.706362229     0.418020221
 H        0.296645717     4.949175744     0.412839081
 H       -3.626415055     3.369535078    -0.388781901
 H       -2.734616161     1.106907241    -0.416636714
 H       -3.397768503     5.690573090    -0.180899213
 H       -0.546182136     6.757217183     0.384788028
 H       -4.238951631     7.557368792    -0.182998593
 H       -5.120573676     9.819014652    -0.171969465
 H       -1.093679269    11.343882793     0.475279663
 H       -0.272859453     9.050742951     0.558212329
 H       -2.782311128    14.722612530     0.437119843
 H       -1.654699057    12.454561834     2.264236354
 H        0.063864030    13.007271322     3.689622497
 H        1.657809485    14.628287556     4.662484194
 H        0.079409324    17.704122621     2.081092404
 H       -1.536476054    16.105669575     1.159808820
 H        2.335180909    19.135985972     4.585824616
 H        0.617655161    18.769972781     4.310030831
 H        1.716491598    18.991980639     2.914916092
 H        5.573453943    15.138065947     2.625974397
 H        5.854672127    15.122785419     0.856924920
 H        5.567656873    13.598798936     1.743587531
 H        4.467856802    14.709876270    -1.138396332
 H        3.609510768    13.101374370    -2.801542008
 H        1.271197646    11.178310873     0.263728506
 H        2.109522358    12.823518994     1.926996511
 H        2.350172154    11.305377323    -3.409460829
 H        0.627074966     9.897688356    -1.220335786
 H        3.454065498     8.847466663    -3.437336978
 H        5.162245444     8.572357515    -5.149237267
 H        2.130063843     8.273906878    -8.188647328
 H        0.392434015     8.557523571    -6.518257293
 H        5.853891508     8.260025861    -7.355806202
 H        3.642603497     8.058460871    -9.512989713
 H        7.367760901     8.041108453    -8.682527115
 H        9.104217959     7.769103669   -10.357652391
 H        6.037244311     7.461894527   -13.429686042
 H        4.332407242     7.751007757   -11.719760714
 H        3.973714511    17.325812065     4.469361882
 H        3.473924489    15.708171255     3.894484251
 H        3.438145393    18.159858874     2.011364572
 H        4.909318998    17.236090480     2.294428792
 H        2.233130101    16.102021538     1.212052284
 H        3.676660038    16.496483871     0.232380386
 H        2.262972042    -1.029961531    -0.039654860
 H        2.275082853     0.479454893     0.906237208
 H        2.261785393     0.541927645    -0.878064755
 H       11.453871845     6.906008356   -13.365124066
 H       10.677184671     6.166410290   -11.942541642
 H       11.028318548     7.916526599   -11.960997339
 H        7.510638864     6.208958478   -14.894051230
 C        9.487471990     5.668494994   -15.606090020
 C        8.313117546     4.618263820   -13.656550154
 H        9.955454576     8.781575048   -15.123671141
 C        7.832326607     9.227781905   -15.216490006
 C        9.438575884    10.211161702   -13.570652358
 H       -0.633030663     7.435790807    -1.954041989
 C       -0.402323770     6.209497367    -3.728547513
 C        1.398233080     6.658979115    -2.048416986
 H       -1.365924092     8.900206395    -5.146921012
 C       -2.315937797     9.507481243    -3.298519063
 C       -1.001201465    11.016199081    -4.817096408
 H       -4.691337964    14.046716131    -1.561000933
 C       -2.899717243    13.198668649    -2.448692206
 C       -5.147707442    12.092003037    -2.387966883
 H       -6.195756753    11.867897471     0.581549794
 C       -5.309976160    11.967930881     2.562225826
 C       -6.098337248    13.937686612     1.229268932
 H       -1.782294638    -0.885682687    -1.453310345
 C       -0.292653326    -0.153132409    -2.850045121
 C       -0.199210949    -2.355354923    -1.655897204
 H       -0.107770337    -1.939493655     1.508520590
 C       -0.195856457    -0.234838673     2.853403697
 C       -2.132912703    -1.158314197     1.568544053
 H        9.623253297     6.538540996   -16.261388654
 H        9.107932688     4.858573023   -16.245962749
 H       10.480782267     5.348762961   -15.264270752
 H        7.580583451     4.709588602   -12.841669607
 H        9.246120729     4.236638861   -13.221223643
 H        7.935723700     3.827936308   -14.320908766
 H        7.563132691     8.406034645   -15.891942626
 H        7.976477987    10.112643198   -15.853576550
 H        6.959812794     9.445612014   -14.584508345
 H       10.382261149    10.132221794   -13.015761998
 H        8.648911278    10.466343696   -12.849240142
 H        9.543628609    11.082655288   -14.232657379
 H       -1.347496990     6.516567672    -4.193940142
 H       -0.616130017     5.267758242    -3.199775833
 H        0.302827446     5.957122269    -4.532116689
 H        1.811249087     7.308277116    -1.265895319
 H        2.209685270     6.428546835    -2.753452445
 H        1.139281486     5.705616296    -1.563818953
 H       -2.565474254     8.481402683    -2.995471614
 H       -3.221732739     9.917360968    -3.766687602
 H       -2.156790345    10.086193656    -2.375290787
 H       -0.233516575    11.117751213    -5.596604000
 H       -0.771224562    11.750959260    -4.031244942
 H       -1.947920808    11.337111627    -5.273517896
 H       -2.178702587    13.893332821    -1.995388968
 H       -3.127388670    13.598230028    -3.446562914
 H       -2.375104130    12.244146142    -2.612280960
 H       -6.133378817    11.998715752    -1.915142904
 H       -4.737428905    11.079347083    -2.511686847
 H       -5.329581111    12.473952685    -3.403078976
 H       -4.929449288    10.937099197     2.579638346
 H       -6.281637795    11.945081637     3.075536831
 H       -4.644082922    12.577401625     3.190103096
 H       -6.313545154    14.383226356     0.249838402
 H       -5.473056880    14.646598444     1.790577263
 H       -7.059537924    13.889402836     1.761242190
 H       -0.639632338     0.889981870    -2.870188282
 H       -0.764655177    -0.649974806    -3.709622467
 H        0.786779690    -0.146696555    -3.052038966
 H       -0.486832893    -2.965812769    -0.790213660
 H        0.885971141    -2.455945835    -1.790573608
 H       -0.662248931    -2.829790487    -2.533443396
 H        0.889355864    -0.104584582     2.954027600
 H       -0.513948101    -0.837098962     3.716550837
 H       -0.662356658     0.752814789     2.979114344
 H       -2.505861577    -1.711935700     0.697652652
 H       -2.703285230    -0.221925890     1.643777468
 H       -2.407991440    -1.754873140     2.450731493

