187   

Si        0.000000000     0.000000000     0.000000000
 C        1.865226465     0.000000000     0.000000000
 C       -0.674760337     1.712957691     0.000000000
 C        0.137162997     2.807074615    -0.315336754
 C       -0.383306828     4.101034012    -0.312607022
 C       -1.726232067     4.330440411    -0.002190865
 C       -2.539705412     3.232694129     0.309172954
 C       -2.022548960     1.940170104     0.309718836
 C       -2.313269179     5.666265439     0.012950530
 C       -1.643953292     6.798325275    -0.263371993
 C       -2.228375035     8.135169259    -0.248978150
 C       -3.571049149     8.368099794     0.061031924
 C       -4.087817955     9.663403490     0.062713319
 C       -3.273547472    10.753616707    -0.259675410
 C       -1.927269700    10.523239833    -0.572501748
 C       -1.411806461     9.230168971    -0.561769273
Si       -3.927523700    12.472483647    -0.265680597
 C       -3.119815062    13.502957631    -1.543701178
 C       -2.640118375    13.024050386    -2.699116722
 C       -1.993026898    13.845281853    -3.724568516
 C       -1.532179471    13.220929113    -4.894271489
 C       -0.913353755    13.951548800    -5.894820901
 C       -0.767620168    15.347708473    -5.765238090
 C       -1.223048455    15.975128969    -4.596700791
 C       -1.809408860    15.222545875    -3.584200665
 N       -0.124369620    16.033619765    -6.827221345
 C       -0.817667551    15.961650479    -8.129144256
 C        0.396322374    17.371561071    -6.508089760
 C       -1.916339040    17.010235815    -8.377474749
 C       -3.170815470    16.843946547    -7.499477323
 N       -4.081550088    15.757320690    -7.892657373
 C       -4.498854541    15.698526474    -9.227472362
 C       -4.713055715    16.896672218    -9.945788325
 C       -5.125914268    16.857017841   -11.266882174
 C       -5.386441791    15.638958172   -11.911221962
 C       -5.203077911    14.456102232   -11.189634128
 C       -4.774627166    14.474857281    -9.869219416
 C       -3.861882326    14.487636372    -7.188983051
 C       -5.820315198    15.655866611   -13.308856465
 C       -6.096641171    14.556742476   -14.022863073
Si       -6.640696227    14.521087868   -15.766403014
 C       -8.134569967    13.460408217   -15.932614014
 C       -8.938133340    13.191295188   -14.819755063
 C      -10.070943833    12.387628269   -14.943198037
 C      -10.430976272    11.845820927   -16.180058763
 C       -9.627571199    12.122383615   -17.294494443
 C       -8.493090352    12.920607043   -17.174195167
 C      -11.606704755    11.000028121   -16.357014383
 C      -12.458885182    10.657623625   -15.375975990
 C      -13.634273757     9.811631869   -15.554698182
 C      -13.989917002     9.267146328   -16.791337927
 C      -15.122600672     8.463106281   -16.917599334
 C      -15.930161378     8.192454389   -15.808607323
 C      -15.576361844     8.738494765   -14.567181682
 C      -14.441603921     9.535187586   -14.443002887
Si      -17.428094417     7.133341592   -15.958937544
 C      -17.895893866     6.856497299   -17.743461216
 C      -17.096332350     5.445287473   -15.144104507
 C      -18.856357722     7.982959907   -15.030218951
 C       -7.046382446    16.267962525   -16.399182943
 C       -5.233615897    13.799188986   -16.825462724
 C       -5.801567347    12.465130467    -0.592111994
 C       -3.603671654    13.257480796     1.435903803
 C       -0.616203461    -0.920160545    -1.548035030
 C       -0.656697851    -0.904952904     1.540819884
 H        1.194958461     2.690705931    -0.567214387
 H        0.271241239     4.935835579    -0.556672165
 H       -3.588554619     3.389163996     0.554051477
 H       -2.704891285     1.123649956     0.562296237
 H       -3.375303282     5.696792575     0.273286893
 H       -0.581649762     6.766982825    -0.523408085
 H       -4.226699923     7.535281182     0.308030328
 H       -5.143824833     9.782873898     0.319937869
 H       -1.243607545    11.339530255    -0.829636806
 H       -0.362469138     9.070715561    -0.803229266
 H       -3.067096173    14.575354700    -1.302017788
 H       -2.689433753    11.958587030    -2.966222112
 H       -1.648585373    12.142516427    -5.012018794
 H       -0.522487841    13.451850060    -6.779196943
 H       -1.117494074    17.047947604    -4.467173637
 H       -2.143637815    15.726905392    -2.676729503
 H        1.012290856    17.725108314    -7.353476678
 H        1.061959475    17.298377157    -5.629136038
 H       -0.377743526    18.126596892    -6.300509693
 H       -3.580314216    14.679033802    -6.136616474
 H       -3.075372554    13.861135251    -7.640380313
 H       -4.808593137    13.916707631    -7.165756546
 H       -4.556871277    17.856175184    -9.462417440
 H       -5.265460330    17.793331468   -11.808157359
 H       -5.399738247    13.494286781   -11.666732201
 H       -4.641992433    13.532760565    -9.347474176
 H       -5.903814381    16.669590279   -13.722169565
 H       -5.996286866    13.552245806   -13.578706609
 H       -8.707891851    13.592782028   -13.827100484
 H      -10.678208669    12.187836769   -14.062223362
 H       -9.890796643    11.710054260   -18.266415712
 H       -7.903769798    13.101085134   -18.077250101
 H      -11.763697409    10.643800386   -17.379426894
 H      -12.302637943    11.013825078   -14.353430363
 H      -13.381222836     9.466703228   -17.671329376
 H      -15.348345686     8.064366572   -17.910428586
 H      -16.170358704     8.561896740   -13.666029907
 H      -14.182133527     9.949007574   -13.470315379
 H       -0.028222335    16.070411508    -8.911605123
 H       -1.240708203    14.940756196    -8.260409577
 H       -1.508437705    18.028005432    -8.233928188
 H       -2.204721968    16.963637250    -9.449376298
 H       -2.874624488    16.696386915    -6.435478694
 H       -3.760741059    17.792156999    -7.516355761
 H        2.263219812    -1.029451165     0.047344494
 H        2.260782788     0.549103932     0.873905800
 H        2.275170624     0.473092092    -0.909459822
 H      -18.820658709     6.257726045   -17.824056141
 H      -17.104101196     6.320949535   -18.295909183
 H      -18.076872789     7.817026403   -18.259212250
 H      -18.027924761     4.833657121   -15.320668820
 C      -15.909443350     4.703448335   -15.785566325
 C      -16.862733582     5.528344971   -13.625058834
 H      -18.518250662     8.071570508   -13.956833764
 C      -19.136620377     9.403154003   -15.553841162
 C      -20.165940299     7.174832738   -15.046515926
 H       -6.136458527    16.897315998   -16.177093547
 C       -7.305802130    16.324397010   -17.915176201
 C       -8.250482812    16.890754131   -15.668879293
 H       -5.600611966    13.826897856   -17.891982459
 C       -3.937322756    14.624622822   -16.746467723
 C       -4.919573912    12.335129961   -16.469551076
 H       -6.263057617    11.864354595     0.244010091
 C       -6.426630740    13.871324799    -0.566782177
 C       -6.158928332    11.785270600    -1.925934544
 H       -4.028009161    14.301539185     1.385335377
 C       -4.302219648    12.512207795     2.586280716
 C       -2.100757150    13.367055047     1.749789057
 H       -0.127872724    -1.936752177    -1.514045391
 C       -2.141423018    -1.125196347    -1.575041176
 C       -0.188331005    -0.228732623    -2.855497623
 H       -1.781248757    -0.907463176     1.442721674
 C       -0.189632535    -2.368091633     1.638794497
 C       -0.300093410    -0.175747488     2.848834151
 H      -16.033213852     4.529786982   -16.862208561
 H      -15.792311313     3.711403942   -15.326278610
 H      -14.951893590     5.224336566   -15.640602307
 H      -17.706427900     5.967314193   -13.077676313
 H      -15.957942122     6.094650311   -13.362533461
 H      -16.721477905     4.519049643   -13.211480906
 H      -18.255475397    10.059991618   -15.519311164
 H      -19.905289182     9.888412966   -14.935597912
 H      -19.516607948     9.414082716   -16.583974865
 H      -20.061730965     6.168728149   -14.620166558
 H      -20.591510607     7.068974188   -16.053201700
 H      -20.929992813     7.686254179   -14.442975695
 H       -6.450271545    15.992043539   -18.516600944
 H       -7.511776625    17.360027086   -18.222543199
 H       -8.182139765    15.736099697   -18.221840937
 H       -8.131942246    16.927533732   -14.577175365
 H       -9.193415360    16.364926296   -15.877809666
 H       -8.397396190    17.928493135   -15.999103394
 H       -4.063529773    15.665248890   -17.071733195
 H       -3.171907161    14.187630554   -17.403383583
 H       -3.502383584    14.642337343   -15.736799336
 H       -5.793590273    11.672338561   -16.540754525
 H       -4.497719083    12.220713649   -15.461567302
 H       -4.170725102    11.930455016   -17.165003736
 H       -6.277735351    14.398611798     0.384096568
 H       -7.514822764    13.800670347    -0.709736234
 H       -6.054091484    14.519346963    -1.372529817
 H       -5.797991823    10.749997533    -1.999805183
 H       -5.775809834    12.331263327    -2.800429131
 H       -7.250619342    11.739248545    -2.045654394
 H       -5.394236384    12.475868138     2.483023588
 H       -4.101489931    13.020596661     3.540665979
 H       -3.943163979    11.480139752     2.709173571
 H       -1.537523362    13.937212929     0.998572145
 H       -1.614012382    12.386605522     1.855965635
 H       -1.952280222    13.887552514     2.706667964
 H       -2.519541681    -1.696977031    -0.718177506
 H       -2.427814254    -1.693313434    -2.472200738
 H       -2.699007698    -0.179129255    -1.622525508
 H        0.898903844    -0.115362584    -2.954187356
 H       -0.639420681     0.766300018    -2.979809572
 H       -0.514291962    -0.823840790    -3.720631356
 H       -0.469580054    -2.973554673     0.767084712
 H       -0.653611917    -2.852406853     2.510406748
 H        0.895546306    -2.463003418     1.777376093
 H       -0.653251658     0.865103332     2.875708368
 H        0.778638527    -0.163913011     3.053812519
 H       -0.771550104    -0.681782304     3.703356707

