187   

Si        0.000000000     0.000000000     0.000000000
 C        1.865267265     0.000000000     0.000000000
 C       -0.677749947     1.711385615     0.000000000
 C        0.112992441     2.799095012     0.384241745
 C       -0.409470536     4.092288881     0.380993219
 C       -1.733257148     4.327311015     0.000438251
 C       -2.525729526     3.235737126    -0.379274274
 C       -2.006965402     1.943886613    -0.378031374
 C       -2.322641008     5.661930690    -0.018431725
 C       -1.675083673     6.789859284     0.319868073
 C       -2.265458804     8.124171982     0.300654012
 C       -3.590082990     8.356091753    -0.080539702
 C       -4.114290562     9.647950222    -0.084491137
 C       -3.327546548    10.735720037     0.309612739
 C       -2.000417753    10.506007366     0.694266264
 C       -1.475799156     9.216246961     0.683637524
Si       -4.010135530    12.440584068     0.307377500
 C       -3.220070860    13.542145000     1.534762312
 C       -2.700116946    13.135093261     2.700540149
 C       -2.070743356    14.032513913     3.671991830
 C       -1.558067675    13.497652021     4.863675524
 C       -0.954618460    14.310356935     5.810214239
 C       -0.854771918    15.699516260     5.591158051
 C       -1.342951996    16.232032656     4.390433522
 C       -1.915020316    15.399618355     3.435102335
 N       -0.227159335    16.487432376     6.592763858
 C       -0.841121031    16.384922316     7.944874406
 C        0.073182176    17.877338530     6.207038668
 C       -2.330380208    15.990818545     8.006277514
 C       -3.291202777    17.046667922     8.582184339
 N       -3.487545361    18.291163300     7.810710277
 C       -3.603811068    18.189856838     6.414018707
 C       -4.264369066    17.081494748     5.838529910
 C       -4.382207843    16.975942468     4.462656973
 C       -3.977104816    18.019107796     3.615918121
 C       -3.380186569    19.142329901     4.191546555
 C       -3.188479159    19.233410977     5.564349945
 C       -2.698426270    19.420877117     8.330880439
 C       -4.121718721    17.860176120     2.168391553
 C       -3.764958961    18.796462412     1.278360638
Si       -3.933468396    18.626293661    -0.531510138
 C       -5.350548111    17.550347319    -0.990174890
 C       -6.537950906    17.595863754    -0.251016484
 C       -7.615870522    16.781763195    -0.594767154
 C       -7.533929820    15.909580008    -1.684657391
 C       -6.345635430    15.868515822    -2.425023353
 C       -5.266588403    16.679686399    -2.083450791
 C       -8.634448042    15.039089423    -2.082597008
 C       -9.825016172    14.977989466    -1.462761886
 C      -10.923625874    14.105839612    -1.863790995
 C      -10.834850933    13.235641626    -2.953350401
 C      -11.909714219    12.418455072    -3.302639803
 C      -13.096289706    12.449004722    -2.563394976
 C      -13.187217914    13.320021143    -1.469036543
 C      -12.114725879    14.138654668    -1.126290962
Si      -14.524189188    11.376852896    -3.011201268
 C      -14.039512328    10.070099754    -4.250928191
 C      -15.178974050    10.563124510    -1.419769427
 C      -15.910678219    12.444045832    -3.760564822
 C       -4.239032689    20.353441238    -1.269353576
 C       -2.293895908    17.957609073    -1.226867869
 C       -3.828252294    13.207289716    -1.421707533
 C       -5.865186782    12.398243339     0.746474495
 C       -0.650295991    -0.910360644    -1.540656115
 C       -0.622338561    -0.917836718     1.546918731
 H        1.155440515     2.678051290     0.691429370
 H        0.228034428     4.922178637     0.680680019
 H       -3.559613781     3.396561115    -0.678782087
 H       -2.673243780     1.132425797    -0.683686023
 H       -3.368318452     5.695366300    -0.337924750
 H       -0.629276517     6.756950456     0.639305180
 H       -4.224745871     7.525226646    -0.382412023
 H       -5.154299806     9.768297689    -0.401206068
 H       -1.338445228    11.320536525     1.007658034
 H       -0.440794964     9.057571595     0.980592619
 H       -3.222136770    14.607893040     1.251818531
 H       -2.697839073    12.083581045     3.016995829
 H       -1.636444282    12.427115704     5.052269772
 H       -0.547948620    13.883118283     6.723087942
 H       -1.296210942    17.300983149     4.193953325
 H       -2.273077867    15.841631472     2.502157207
 H        0.702553812    18.337149670     6.987030559
 H       -0.818847993    18.505609739     6.049748948
 H        0.669099951    17.873133281     5.276214740
 H       -2.721140078    19.419042398     9.433607111
 H       -3.169230090    20.369135585     8.011005130
 H       -1.646841825    19.415140403     8.003088214
 H       -4.669206163    16.297192830     6.472003220
 H       -4.833156584    16.077156575     4.035239026
 H       -3.053308961    19.969731732     3.559748291
 H       -2.715998567    20.123802868     5.964634511
 H       -4.568774648    16.898586190     1.877495047
 H       -3.319707261    19.749843398     1.600885096
 H       -6.656904573    18.256501834     0.614453264
 H       -8.528678337    16.832533187    -0.004142278
 H       -6.259562425    15.193405998    -3.274543951
 H       -4.365216848    16.602864519    -2.698078052
 H       -8.427957847    14.409403507    -2.953101136
 H      -10.033911527    15.607440768    -0.592785139
 H       -9.921082366    13.189462651    -3.543145765
 H      -11.781622743    11.759704932    -4.166015895
 H      -14.089448896    13.385940572    -0.854250700
 H      -12.204913812    14.809646239    -0.273996311
 H       -0.238836064    15.609023209     8.477541888
 H       -0.677251955    17.332075878     8.499045070
 H       -2.692270481    15.682314378     7.002661568
 H       -2.429714623    15.071194393     8.618170459
 H       -4.305214616    16.582632126     8.682964861
 H       -2.976947540    17.309780235     9.616417817
 H        2.263203453    -1.029141755    -0.052062413
 H        2.276079622     0.469607960     0.910781821
 H        2.259899251     0.553262223    -0.871722490
 H      -14.891377978     9.405773078    -4.482077755
 H      -13.222078326     9.436942056    -3.860696176
 H      -13.697482301    10.514714683    -5.201934065
 H      -15.493043710    11.412064459    -0.745124588
 C      -16.407415519     9.665200160    -1.650005821
 C      -14.096235897     9.753314133    -0.683690056
 H      -16.719966516    11.719525986    -4.066474583
 C      -16.522549719    13.449422086    -2.768730092
 C      -15.453442885    13.207303083    -5.017205824
 H       -3.352926327    20.983118394    -0.968204298
 C       -4.320441915    20.345322218    -2.805563645
 C       -5.508098382    21.015762701    -0.704209632
 H       -2.445019552    17.852128141    -2.339688757
 C       -1.108499033    18.913729720    -0.999649044
 C       -1.929118167    16.577178681    -0.656185686
 H       -4.180819830    14.277714845    -1.325763297
 C       -2.367601825    13.217968914    -1.905677826
 C       -4.701276816    12.521313457    -2.487343388
 H       -6.382631868    11.888926848    -0.116052375
 C       -6.151537517    11.589216061     2.024039865
 C       -6.467750068    13.803642339     0.905941008
 H       -1.775017321    -0.917991969    -1.444867054
 C       -0.294115382    -0.182130522    -2.849357843
 C       -0.177064757    -2.371873551    -1.635315656
 H       -0.142077031    -1.938113066     1.512054059
 C       -0.190341828    -0.231071977     2.855518210
 C       -2.149435692    -1.109596428     1.571278886
 H      -17.253247207    10.194340323    -2.107690106
 H      -16.772985495     9.275866010    -0.688564192
 H      -16.186194469     8.787356536    -2.271437228
 H      -13.205769412    10.347365736    -0.432686367
 H      -13.758885016     8.874246799    -1.248581286
 H      -14.491320586     9.375040384     0.269950949
 H      -16.949113537    12.976189458    -1.875317555
 H      -17.347763637    13.995187136    -3.249284822
 H      -15.804472509    14.212678424    -2.437250085
 H      -15.077845432    12.552124873    -5.813658068
 H      -14.673566467    13.952590280    -4.804055304
 H      -16.298703535    13.761968411    -5.449383515
 H       -3.409440664    19.969655113    -3.288741249
 H       -4.466333032    21.368948303    -3.180238709
 H       -5.167843466    19.757516639    -3.186520060
 H       -5.503202025    21.105401243     0.390727584
 H       -6.429001697    20.487767438    -0.990626705
 H       -5.606605853    22.037848844    -1.096824531
 H       -1.249165855    19.901440620    -1.455754893
 H       -0.198091189    18.496429146    -1.454063612
 H       -0.877786502    19.064151615     0.064411665
 H       -2.710736620    15.821618171    -0.818308509
 H       -1.706224784    16.605312450     0.420563900
 H       -1.023142226    16.192152870    -1.145576522
 H       -1.674561417    13.703512947    -1.204837271
 H       -2.287191361    13.768032392    -2.853666271
 H       -1.979000800    12.208534243    -2.102685351
 H       -5.776479515    12.588532062    -2.273811073
 H       -4.452639901    11.460646489    -2.629911345
 H       -4.550694954    13.003633553    -3.463755395
 H       -5.805845698    10.548197035     1.970058822
 H       -7.234913328    11.544626647     2.204634347
 H       -5.706042893    12.039036061     2.922898105
 H       -6.326231239    14.444543524     0.023196189
 H       -6.070462047    14.344358238     1.775921504
 H       -7.554883683    13.732580423     1.053483208
 H       -0.651023181     0.857439887    -2.878383600
 H       -0.761742291    -0.691274933    -3.703997026
 H        0.785022709    -0.166451168    -3.051916871
 H       -0.460486648    -2.977923497    -0.765175941
 H        0.909267372    -2.462769536    -1.766954298
 H       -0.633590873    -2.857985294    -2.509786624
 H        0.897732182    -0.128016604     2.955786794
 H       -0.523459112    -0.823720134     3.719573149
 H       -0.632622200     0.768012585     2.979339704
 H       -2.530732691    -1.678700699     0.714074454
 H       -2.698529388    -0.158280617     1.615870268
 H       -2.442827864    -1.674129819     2.468318998

