187   

Si        0.000000000     0.000000000     0.000000000
 C        1.865634401     0.000000000     0.000000000
 C       -0.679993242     1.710438898     0.000000000
 C        0.152197369     2.821587889    -0.167204220
 C       -0.377918534     4.111860810    -0.164951744
 C       -1.750048837     4.320394375    -0.004319349
 C       -2.583091311     3.205549076     0.161284081
 C       -2.056398821     1.917138009     0.165891890
 C       -2.349269209     5.650761173     0.004560058
 C       -1.666128125     6.799295344    -0.137329463
 C       -2.267022971     8.129072004    -0.128212273
 C       -3.640796528     8.332712340     0.032866760
 C       -4.174051236     9.620495072     0.035633386
 C       -3.339374179    10.734411667    -0.108590138
 C       -1.962901938    10.534941813    -0.267671996
 C       -1.435392191     9.245906410    -0.281741034
Si       -4.044647516    12.430048212    -0.104593011
 C       -2.762823834    13.662912168     0.323648957
 C       -2.490000076    14.784522111    -0.354377533
 C       -1.449148314    15.742270437     0.032164068
 C       -1.255524042    16.885467976    -0.759839925
 C       -0.284030549    17.819512542    -0.434969064
 C        0.509375170    17.632775135     0.708577406
 C        0.327333069    16.496248392     1.502203124
 C       -0.638912904    15.556204996     1.154879427
 N        1.488904484    18.652375751     0.964152025
 C        0.931846182    19.747768501     1.790680063
 C        2.771297462    18.132617648     1.471363220
 C        0.779143826    19.420806171     3.289111760
 C       -0.180626560    20.396644215     3.998130638
 N       -1.546808679    19.882064566     4.239766274
 C       -2.266013357    19.641853453     3.025825523
 C       -2.799953219    20.767480582     2.376208458
 C       -3.509717476    20.613703149     1.194272229
 C       -3.685754658    19.345975705     0.621976334
 C       -3.167827594    18.232258788     1.288099156
 C       -2.490250397    18.367381588     2.494069945
 C       -1.575638002    18.762052380     5.198053901
 C       -4.441825372    19.222806302    -0.627845249
 C       -4.659866804    18.054918570    -1.245356382
Si       -5.584832641    17.794658866    -2.799246538
 C       -6.800553281    16.448662538    -2.497216170
 C       -7.324997976    16.262623596    -1.213952756
 C       -8.247546895    15.246545387    -0.969182784
 C       -8.658949818    14.392831628    -1.996113212
 C       -8.134621073    14.584211219    -3.281414733
 C       -7.221246152    15.604838205    -3.532156741
 C       -9.621582870    13.317792466    -1.782717010
 C      -10.195402001    13.032312813    -0.601611072
 C      -11.158288887    11.958357190    -0.384104228
 C      -11.582396214    11.107795849    -1.408014934
 C      -12.505431382    10.093091733    -1.155606812
 C      -13.028738413     9.910680691     0.128221600
 C      -12.604389120    10.762597709     1.157240973
 C      -11.679002200    11.770911074     0.903395902
Si      -14.247814229     8.576136388     0.477846432
 C      -14.939547246     7.848237632    -1.093910108
 C      -13.399436033     7.192201467     1.472097945
 C      -15.650345267     9.309577955     1.535285781
 C       -6.515324086    19.363919415    -3.330262555
 C       -4.367158726    17.324460080    -4.181466415
 C       -4.829981480    12.788033409    -1.797058785
 C       -5.404877681    12.564155354     1.222413042
 C       -0.597316610    -0.930671835    -1.549864188
 C       -0.664407839    -0.896566371     1.541724619
 H        1.232893900     2.721693634    -0.300463372
 H        0.292071216     4.960167271    -0.292677594
 H       -3.654730929     3.345915110     0.289364648
 H       -2.754594565     1.086818952     0.304690371
 H       -3.434920560     5.662101366     0.138795115
 H       -0.580608932     6.788444678    -0.272143792
 H       -4.308314968     7.481708668     0.154301412
 H       -5.257066335     9.717994629     0.157840391
 H       -1.265927572    11.370467812    -0.387238942
 H       -0.363624346     9.108304217    -0.411166981
 H       -2.208376919    13.405077833     1.242172489
 H       -3.027150102    15.069658214    -1.269001869
 H       -1.872636872    17.047001815    -1.645187504
 H       -0.129171794    18.703535924    -1.052591941
 H        0.942772902    16.336133309     2.382369293
 H       -0.761699152    14.669517594     1.777208690
 H        3.502187878    18.959261790     1.485514365
 H        3.148015670    17.369604718     0.767506541
 H        2.729805011    17.686864045     2.475569239
 H       -1.198029350    19.125718947     6.169371192
 H       -0.983282165    17.882731084     4.902992852
 H       -2.621984381    18.444025351     5.350864704
 H       -2.660053050    21.753410589     2.815062909
 H       -3.928998161    21.491747749     0.704932165
 H       -3.314691944    17.229607937     0.877505466
 H       -2.104471019    17.481081591     2.991343405
 H       -4.810238965    20.181360647    -1.011494230
 H       -4.264466878    17.111742055    -0.823452639
 H       -7.034469248    16.898277113    -0.369805236
 H       -8.649707045    15.124961909     0.035386084
 H       -8.446103965    13.932752138    -4.095318922
 H       -6.850354449    15.711869953    -4.554936547
 H       -9.862379235    12.733431572    -2.675199374
 H       -9.955037964    13.618380302     0.290714648
 H      -11.193367013    11.230801468    -2.417229814
 H      -12.799150737     9.458945167    -1.996686197
 H      -12.979719940    10.667328368     2.180153909
 H      -11.360548088    12.421609205     1.715872182
 H        1.597167027    20.628696003     1.655015348
 H       -0.058530735    20.027903545     1.359962465
 H        0.412444088    18.382293692     3.403476611
 H        1.767470738    19.444723281     3.780695314
 H        0.237715397    20.686818648     4.988429591
 H       -0.275590009    21.342404078     3.418546121
 H        2.263295511    -1.029913273     0.037786482
 H        2.263412989     0.540831476     0.877783627
 H        2.273352873     0.481030032    -0.906429865
 H      -15.701464290     7.078943226    -0.874419498
 H      -14.153459064     7.372030049    -1.705684799
 H      -15.423095465     8.626555065    -1.711898528
 H      -14.180096418     6.387926571     1.602311469
 C      -12.201769759     6.578360647     0.723981546
 C      -12.932765293     7.633843679     2.870720327
 H      -15.161307387     9.684417289     2.481243221
 C      -16.336715165    10.507199618     0.853897555
 C      -16.720841976     8.278793244     1.935248232
 H       -5.739480512    20.180747456    -3.395293510
 C       -7.186504158    19.234071493    -4.709154547
 C       -7.578547140    19.793356160    -2.302778086
 H       -4.986565412    17.258996219    -5.122842299
 C       -3.278103728    18.389772234    -4.402629178
 C       -3.691505200    15.960168044    -3.966289653
 H       -5.120720508    13.880431022    -1.786176109
 C       -3.843546796    12.557981769    -2.956270689
 C       -6.105133661    11.969385025    -2.063394675
 H       -6.261898753    11.929009133     0.853963676
 C       -4.961730438    12.016799827     2.590549461
 C       -5.915993676    14.003791169     1.400412311
 H       -0.075740583    -1.931043580    -1.520758209
 C       -2.114477802    -1.187507889    -1.578733437
 C       -0.193866818    -0.219810117    -2.854869149
 H       -1.789013055    -0.886507061     1.442630721
 C       -0.212711007    -2.364364340     1.641973753
 C       -0.301281279    -0.169307987     2.849104706
 H      -12.465893665     6.163120147    -0.257099533
 H      -11.780625973     5.745988348     1.306015436
 H      -11.380758861     7.293780717     0.572336783
 H      -13.745876481     8.013607352     3.502259528
 H      -12.145766919     8.400301807     2.835556026
 H      -12.501192666     6.777646802     3.409679633
 H      -15.638665588    11.314122803     0.588533591
 H      -17.077696946    10.953467196     1.532493743
 H      -16.881549672    10.228408186    -0.057780603
 H      -16.315169258     7.423544892     2.491041653
 H      -17.278553872     7.884750367     1.075358890
 H      -17.465569937     8.748054143     2.594676176
 H       -6.476921497    19.041197024    -5.523664153
 H       -7.699168429    20.172380581    -4.967444160
 H       -7.955533848    18.449309914    -4.739899677
 H       -7.176069824    19.951156820    -1.292780337
 H       -8.404817257    19.072665861    -2.218657633
 H       -8.033238206    20.746982693    -2.606064032
 H       -3.680306101    19.375063818    -4.670339252
 H       -2.623401322    18.092023724    -5.234176125
 H       -2.624199256    18.525244597    -3.528770183
 H       -4.403868496    15.141953567    -3.785825546
 H       -2.972240645    15.965656216    -3.135133040
 H       -3.120347045    15.676783017    -4.861925751
 H       -2.931388430    13.165510882    -2.882690561
 H       -4.317860466    12.819016804    -3.913023729
 H       -3.532630461    11.507341902    -3.049435401
 H       -6.912689366    12.177498263    -1.346936624
 H       -5.931853807    10.885545197    -2.075744280
 H       -6.514936058    12.228183683    -3.051311460
 H       -4.616053515    10.974349439     2.552796819
 H       -5.806946110    12.033485661     3.293201098
 H       -4.163980290    12.612992573     3.053300915
 H       -6.278226570    14.454012959     0.464581761
 H       -5.156326461    14.678756059     1.819950599
 H       -6.763815564    14.018620702     2.098992754
 H       -2.478501181    -1.752195042    -0.711235086
 H       -2.376425233    -1.784691518    -2.464425617
 H       -2.702148916    -0.261708943    -1.651116059
 H        0.888888214    -0.069525553    -2.953929693
 H       -0.677343653     0.760632176    -2.973776823
 H       -0.500893922    -0.821418849    -3.722283891
 H       -0.498570190    -2.967923014     0.770876856
 H       -0.681933674    -2.842529919     2.514119773
 H        0.871388235    -2.470097141     1.780871368
 H       -0.644544411     0.874952579     2.874050854
 H        0.777274466    -0.168072990     3.054761039
 H       -0.778825601    -0.669372580     3.703727581

