187   

Si        0.000000000     0.000000000     0.000000000
 C        1.865014896     0.000000000     0.000000000
 C       -0.670033194     1.713767139     0.000000000
 C        0.108293006     2.769277363    -0.485796432
 C       -0.391482072     4.069839983    -0.489347986
 C       -1.666888953     4.351531217     0.007872142
 C       -2.444041541     3.293108368     0.494761839
 C       -1.955860717     1.988528810     0.483378239
 C       -2.216134743     5.703838708     0.016802845
 C       -1.559019121     6.781868190    -0.443262809
 C       -2.070536644     8.146255760    -0.452443156
 C       -3.335739967     8.485754384     0.030787588
 C       -3.777776683     9.809280793    -0.001226872
 C       -2.984669173    10.807697695    -0.571674801
 C       -1.723517311    10.464337280    -1.081409120
 C       -1.272335480     9.150383849    -1.018660859
Si       -3.499545193    12.571474710    -0.650318472
 C       -3.232653058    13.244970456    -2.327461527
 C       -3.295551732    12.513107628    -3.448324680
 C       -3.081344686    13.055117740    -4.790523633
 C       -3.171435904    12.196017065    -5.895571151
 C       -2.976635430    12.663079480    -7.184532784
 C       -2.599062840    14.005639917    -7.411095287
 C       -2.499087840    14.865871293    -6.298868514
 C       -2.766629550    14.396269245    -5.019596689
 N       -2.402400371    14.476341504    -8.716664736
 C       -1.931113911    13.529254383    -9.744382529
 C       -1.848588275    15.832109375    -8.862606634
 C       -0.757949991    12.614150361    -9.356534021
 C        0.577669963    13.336598132    -9.090261355
 N        1.198619505    13.044378936    -7.773780524
 C        1.023841027    11.695916995    -7.351141813
 C        1.568402443    10.687296090    -8.169491879
 C        1.432659641     9.355039338    -7.813982636
 C        0.772894890     8.987096964    -6.631530455
 C        0.248910890     9.993131366    -5.815847448
 C        0.374820695    11.334207448    -6.162321210
 C        0.906231178    14.066890217    -6.755214417
 C        0.658052225     7.563686204    -6.304296895
 C        0.051024954     7.098319465    -5.205034534
Si       -0.121236896     5.336702791    -4.747546246
 C       -0.208535801     4.173585226    -6.167038483
 C       -0.529959573     4.616766074    -7.453281039
 C       -0.591211265     3.718034376    -8.518155264
 C       -0.351487170     2.356260585    -8.318110031
 C       -0.043623285     1.910988857    -7.025298127
 C        0.022309332     2.805880465    -5.961509883
 C       -0.404489232     1.379960653    -9.401068879
 C       -0.686857837     1.671756185   -10.682095464
 C       -0.739580404     0.694523348   -11.764312611
 C       -0.495612312    -0.666571574   -11.563663516
 C       -0.556579746    -1.566746460   -12.627282043
 C       -0.856443740    -1.122700460   -13.918878048
 C       -1.100589834     0.242196882   -14.123181371
 C       -1.045014391     1.137270870   -13.058448454
Si       -0.940771917    -2.297652113   -15.333315314
 C       -0.216249341    -3.958553397   -14.890243067
 C       -2.757353106    -2.541206353   -15.847346757
 C        0.005887413    -1.536435857   -16.799009221
 C        1.362695423     4.895634562    -3.631597588
 C       -1.714309453     5.151802422    -3.721894205
 C       -5.340007987    12.756701510    -0.202363420
 C       -2.472684337    13.584110172     0.590070259
 C       -0.614693733    -0.854810542    -1.587932730
 C       -0.668804311    -0.945129433     1.507270535
 H        1.119696527     2.616746057    -0.873794910
 H        0.237829940     4.874620884    -0.868362252
 H       -3.441328151     3.487854050     0.883943955
 H       -2.609681811     1.201565230     0.868469869
 H       -3.225120653     5.792707384     0.425956521
 H       -0.542717625     6.680583219    -0.841791936
 H       -3.982163625     7.720357150     0.455027831
 H       -4.763983566    10.020936265     0.420104859
 H       -1.065841900    11.205187804    -1.550254230
 H       -0.289672534     8.901613766    -1.416502572
 H       -3.033004665    14.326241557    -2.359639871
 H       -3.499761318    11.432825017    -3.443530997
 H       -3.420658750    11.143833906    -5.743034623
 H       -3.122337648    11.986802010    -8.022454583
 H       -2.233027805    15.909710445    -6.424268409
 H       -2.708565826    15.092258817    -4.181119770
 H       -1.738844988    16.087177542    -9.929654918
 H       -0.871361973    15.964326640    -8.369699426
 H       -2.563899088    16.561120640    -8.436942941
 H        1.256078045    15.045817777    -7.122516402
 H        1.481255584    13.842531284    -5.839113757
 H       -0.160373222    14.149824907    -6.488247562
 H        2.097765800    10.962452390    -9.078335544
 H        1.852957244     8.584514684    -8.460134515
 H       -0.272699969     9.734060516    -4.893077955
 H       -0.063491945    12.091133319    -5.515219702
 H        1.123810175     6.907603649    -7.051149779
 H       -0.392506216     7.790656681    -4.468881212
 H       -0.744740857     5.668532991    -7.668365862
 H       -0.835294565     4.089442071    -9.511639855
 H        0.142644822     0.853651856    -6.848563597
 H        0.257989714     2.399308298    -4.972721811
 H       -0.192404189     0.350087605    -9.099021416
 H       -0.899778837     2.701273386   -10.984326939
 H       -0.255798108    -1.037470603   -10.568879901
 H       -0.357701272    -2.619370512   -12.407814910
 H       -1.338909678     0.646909416   -15.110851683
 H       -1.239511203     2.193155085   -13.236563185
 H       -2.810144532    12.892356188   -10.016536167
 H       -1.675669189    14.096765727   -10.666736026
 H       -1.042557586    12.008349635    -8.469517818
 H       -0.615145108    11.864916914   -10.159782239
 H        1.326967260    13.031273802    -9.858184850
 H        0.461109206    14.433741835    -9.201704251
 H        2.261204989    -1.029853353     0.053723985
 H        2.260861430     0.552321441     0.871805087
 H        2.278423168     0.467563669    -0.910709045
 H       -0.227952377    -4.642123724   -15.757890975
 H       -0.779238053    -4.446299818   -14.075322440
 H        0.834174457    -3.857701436   -14.561776628
 H       -2.740083227    -3.314745893   -16.668635201
 C       -3.627294085    -3.084124587   -14.698733504
 C       -3.417758726    -1.268243383   -16.406147535
 H       -0.518233210    -0.564678368   -17.034304485
 C        1.468969018    -1.209356030   -16.449425569
 C       -0.024381309    -2.406803643   -18.067917991
 H        1.023372623     4.034958026    -2.986140969
 C        2.600779613     4.437485590    -4.422526502
 C        1.781449548     6.060034503    -2.714143417
 H       -1.517966611     5.672821971    -2.738998322
 C       -2.925131875     5.834499921    -4.381954805
 C       -2.073221374     3.687745361    -3.416724797
 H       -5.465973086    12.264485057     0.804958894
 C       -5.791751035    14.222570791    -0.073035160
 C       -6.262192710    12.042679572    -1.207217001
 H       -2.855077753    14.643106548     0.513052146
 C       -2.654136134    13.114072335     2.043917234
 C       -0.970763241    13.597046208     0.253632033
 H       -0.140674853    -1.877824048    -1.590019907
 C       -2.142748757    -1.034428447    -1.626800469
 C       -0.173404238    -0.117884635    -2.866487208
 H       -1.792985075    -0.943188122     1.402662056
 C       -0.206511827    -2.412173163     1.565024895
 C       -0.317987196    -0.256232005     2.838644255
 H       -3.271895856    -4.041713635   -14.297007601
 H       -4.652430866    -3.261916473   -15.054054770
 H       -3.711278279    -2.380945534   -13.857484504
 H       -2.904438329    -0.861023339   -17.286336658
 H       -3.496904333    -0.465735494   -15.659205206
 H       -4.446390941    -1.489090218   -16.726726889
 H        1.568699357    -0.541274371   -15.581857075
 H        1.951542943    -0.692961427   -17.291437014
 H        2.072789257    -2.104244318   -16.248666983
 H       -1.040395432    -2.622719678   -18.422796572
 H        0.496897300    -3.365095740   -17.942698804
 H        0.484544944    -1.886197786   -18.892237781
 H        2.414816555     3.565954589    -5.064490253
 H        3.403833818     4.145826780    -3.731353799
 H        3.017140449     5.228147057    -5.062162857
 H        0.957606943     6.487263610    -2.129101773
 H        2.243027965     6.887756873    -3.273550754
 H        2.537282571     5.718755124    -1.992875327
 H       -2.774914078     6.906345826    -4.569218156
 H       -3.801051614     5.760270161    -3.720911541
 H       -3.215958723     5.366037977    -5.332022784
 H       -1.291393802     3.152191762    -2.859786810
 H       -2.309582216     3.104090491    -4.316326660
 H       -2.968887365     3.648000071    -2.778555542
 H       -5.242994201    14.781612426     0.695519197
 H       -6.851649143    14.264143394     0.217376642
 H       -5.711128490    14.779811169    -1.016671567
 H       -6.039033753    10.974149958    -1.328608690
 H       -6.233637926    12.498491382    -2.208145051
 H       -7.306609313    12.103141560    -0.870477420
 H       -3.694244356    13.162209812     2.391354907
 H       -2.073477389    13.755608659     2.722555869
 H       -2.294802140    12.088420425     2.210510207
 H       -0.753231504    13.941243538    -0.766582023
 H       -0.497398897    12.613337084     0.383013541
 H       -0.440168495    14.282349830     0.930085300
 H       -2.531885233    -1.639749877    -0.798577231
 H       -2.436651889    -1.555317624    -2.549886826
 H       -2.686047634    -0.078566975    -1.629022857
 H        0.915265552    -0.012278948    -2.955764183
 H       -0.617607816     0.884900791    -2.954579149
 H       -0.501952528    -0.678122446    -3.753993786
 H       -0.481836863    -2.990494466     0.673577403
 H       -0.678568221    -2.920796363     2.418355795
 H        0.877284296    -2.514777770     1.708822855
 H       -0.666549403     0.784843232     2.894660792
 H        0.759623856    -0.255401507     3.050485706
 H       -0.796532820    -0.785822421     3.674883012

