187   

Si        0.000000000     0.000000000     0.000000000
 C        1.865291870     0.000000000     0.000000000
 C       -0.679602278     1.710731427     0.000000000
 C        0.130104756     2.809033810    -0.306121577
 C       -0.395690191     4.100925506    -0.303030863
 C       -1.741550766     4.323937768    -0.000965350
 C       -2.552624777     3.221888992     0.301638670
 C       -2.030297219     1.931540048     0.301790003
 C       -2.334878196     5.656942221     0.014428171
 C       -1.670102300     6.793660124    -0.253709754
 C       -2.263432492     8.126725566    -0.238321387
 C       -3.610221443     8.348136274     0.064119932
 C       -4.136409202     9.639099587     0.067393572
 C       -3.321122236    10.738732525    -0.221559517
 C       -1.971369452    10.521181186    -0.524243638
 C       -1.451881689     9.229044367    -0.536566958
Si       -4.007051605    12.445369374    -0.219467870
 C       -2.658177467    13.657025873     0.008948080
 C       -2.441340549    14.739978731    -0.748757104
 C       -1.347081085    15.687945113    -0.532172318
 C       -1.221448482    16.787384591    -1.393346952
 C       -0.204141581    17.713588351    -1.232155707
 C        0.705543628    17.597684695    -0.158193817
 C        0.579025571    16.494249619     0.707608359
 C       -0.418137188    15.549323099     0.502396522
 N        1.733823624    18.541988019    -0.003250214
 C        1.482216713    19.911951966    -0.484441106
 C        2.518069579    18.480939040     1.239356738
 C        0.265192948    20.609552223     0.147545197
 C        0.579418478    21.320148607     1.475607618
 N        1.134699347    22.679242865     1.341090453
 C        0.384953246    23.612873767     0.604700931
 C       -1.025665986    23.549100649     0.623924597
 C       -1.779038607    24.461252716    -0.095967540
 C       -1.169429566    25.497810545    -0.817993338
 C        0.225138206    25.577960754    -0.811017773
 C        0.997208921    24.659600759    -0.110162602
 C        2.595459340    22.714301463     1.175902443
 C       -2.015370653    26.432842599    -1.560770627
 C       -1.549728377    27.459562815    -2.284999026
Si       -2.612391465    28.624538473    -3.211009830
 C       -4.165685876    27.823342042    -3.785346851
 C       -4.152913350    26.469009134    -4.145358368
 C       -5.317294632    25.843906511    -4.582461800
 C       -6.519259969    26.557050446    -4.684258290
 C       -6.526945715    27.909648756    -4.333078411
 C       -5.363095381    28.537845470    -3.890329370
 C       -7.712518282    25.856898773    -5.147518620
 C       -8.925521771    26.418340383    -5.286183847
 C      -10.117334431    25.715583406    -5.749784201
 C      -10.106088132    24.363017850    -6.100118424
 C      -11.268946105    23.729986004    -6.538715229
 C      -12.469426125    24.439525777    -6.642562117
 C      -12.483323993    25.796529779    -6.292272843
 C      -11.322329742    26.424171091    -5.849457143
Si      -14.012598211    23.618516675    -7.219724076
 C      -13.660293390    21.951789707    -7.979755560
 C      -15.194826054    23.381174186    -5.746962708
 C      -14.853850013    24.756498180    -8.492979081
 C       -3.012584470    30.112512321    -2.095122874
 C       -1.646715772    29.241812335    -4.729325259
 C       -4.931629758    12.741593076    -1.854775594
 C       -5.238455180    12.634583283     1.219232228
 C       -0.614068916    -0.921981370    -1.547930913
 C       -0.655715622    -0.905555922     1.540886316
 H        1.190006953     2.697539959    -0.550908580
 H        0.256697099     4.939058581    -0.541336593
 H       -3.603735916     3.373449037     0.539765386
 H       -2.711064056     1.111446819     0.546815836
 H       -3.398804658     5.680952326     0.267616753
 H       -0.606176652     6.769533640    -0.507394160
 H       -4.262099387     7.508897620     0.298757606
 H       -5.197445331     9.749973947     0.307081368
 H       -1.289920480    11.345246824    -0.760348631
 H       -0.401557771     9.077514654    -0.778416337
 H       -2.006688267    13.425216448     0.868014807
 H       -3.075492954    15.002470898    -1.605805543
 H       -1.928700271    16.912918102    -2.214187197
 H       -0.116227554    18.532967441    -1.939956504
 H        1.261266475    16.359410248     1.540259575
 H       -0.481132051    14.694016272     1.177623514
 H        3.280609321    19.276994526     1.247831849
 H        3.064065531    17.519106844     1.273462993
 H        1.905158432    18.571166061     2.151325238
 H        3.066731003    21.937351516     1.800101841
 H        2.974790839    23.687407748     1.541600427
 H        2.926304453    22.576847232     0.133372331
 H       -1.531001022    22.779535844     1.200837600
 H       -2.867167978    24.378652939    -0.086521499
 H        0.725775652    26.374400847    -1.363654067
 H        2.076917690    24.760013947    -0.134635795
 H       -3.088075720    26.206706950    -1.473513116
 H       -0.472096478    27.672240033    -2.347785914
 H       -3.241950175    25.863164389    -4.090716380
 H       -5.289839968    24.789443626    -4.850586111
 H       -7.446995815    28.486668200    -4.403545388
 H       -5.431547632    29.597649687    -3.630401875
 H       -7.558283582    24.800541717    -5.387016227
 H       -9.080851681    27.474407682    -5.047083166
 H       -9.183887897    23.788813865    -6.032294630
 H      -11.197848502    22.669904866    -6.797466271
 H      -13.392305631    26.401638647    -6.353833856
 H      -11.353373344    27.478266625    -5.580312347
 H        2.403314991    20.515522732    -0.330428310
 H        1.352330728    19.858974748    -1.592351354
 H       -0.156405244    21.337619007    -0.575437313
 H       -0.546312012    19.871029154     0.310815301
 H       -0.352104134    21.400528927     2.086706479
 H        1.277534235    20.710126393     2.089209612
 H        2.262962053    -1.029446737     0.049420818
 H        2.261255332     0.550855948     0.872538029
 H        2.275053848     0.471197864    -0.910519568
 H      -14.586074543    21.484385938    -8.360230920
 H      -13.212118603    21.255128495    -7.249863940
 H      -12.961742472    22.044483509    -8.831176755
 H      -16.087108467    22.827152914    -6.159486876
 C      -14.577018491    22.524252891    -4.626760864
 C      -15.695579358    24.702654836    -5.137104325
 H      -15.077280572    25.719165211    -7.947302285
 C      -13.934663829    25.091828938    -9.681452451
 C      -16.184416702    24.199543513    -9.029482985
 H       -3.620250871    30.823025514    -2.726569203
 C       -3.858271822    29.713866638    -0.872417623
 C       -1.758381711    30.862156132    -1.611256362
 H       -0.714862031    29.734778671    -4.327739712
 C       -1.217050323    28.088945866    -5.654410129
 C       -2.421208782    30.283425989    -5.555346333
 H       -5.242514881    13.826346057    -1.843347508
 C       -4.035734967    12.510841628    -3.085515668
 C       -6.201814537    11.884773018    -2.001391023
 H       -6.065272619    11.892826094     1.021009117
 C       -4.610243837    12.292154716     2.581927826
 C       -5.865519290    14.037815098     1.293247665
 H       -0.122904025    -1.937208282    -1.513244259
 C       -2.138717841    -1.131101236    -1.575862409
 C       -0.187551545    -0.229636033    -2.855409215
 H       -1.780190772    -0.910939344     1.441432800
 C       -0.185245004    -2.367545352     1.640610742
 C       -0.302545628    -0.174481101     2.848836567
 H      -14.267779074    21.525637321    -4.961095479
 H      -15.312475252    22.365334489    -3.825069045
 H      -13.706175944    23.001735538    -4.154794357
 H      -16.221555418    25.343375351    -5.856051793
 H      -14.888915038    25.295270178    -4.682898580
 H      -16.413506853    24.494987924    -4.330190021
 H      -12.982495726    25.550013834    -9.377516469
 H      -14.426043531    25.817224584   -10.345431899
 H      -13.697587994    24.217043396   -10.301313614
 H      -16.922640667    24.001939657    -8.241558472
 H      -16.059197660    23.275843234    -9.609856325
 H      -16.649122319    24.928284346    -9.709585362
 H       -4.805048623    29.222748407    -1.136646852
 H       -4.126441514    30.606956203    -0.290769478
 H       -3.322338062    29.045797430    -0.182306416
 H       -1.138459312    31.249133617    -2.429844249
 H       -1.116242175    30.247217523    -0.965030990
 H       -2.051536038    31.735025942    -1.010121988
 H       -0.608303841    27.327064960    -5.148773376
 H       -0.603359758    28.476384407    -6.479958688
 H       -2.070223106    27.575945710    -6.121364360
 H       -2.682228090    31.184659082    -4.986081066
 H       -3.347945125    29.882138055    -5.990137003
 H       -1.808403303    30.622884755    -6.402998756
 H       -3.118684804    13.115813089    -3.082324135
 H       -4.578538679    12.777098490    -4.003228206
 H       -3.733984089    11.459588257    -3.200562013
 H       -6.944870125    12.068795753    -1.215134488
 H       -5.991197263    10.806109669    -2.020428769
 H       -6.701418263    12.114147549    -2.953906872
 H       -4.177049125    11.282644892     2.620445101
 H       -5.376580045    12.327044258     3.369286211
 H       -3.827065768    13.001455389     2.882746722
 H       -6.408839420    14.320533533     0.382425631
 H       -5.126959506    14.826159234     1.498063918
 H       -6.596613034    14.080967332     2.113112543
 H       -2.517168900    -1.697203695    -0.715434928
 H       -2.422117555    -1.706539116    -2.469246991
 H       -2.697980170    -0.186439350    -1.631375280
 H        0.899486436    -0.114624040    -2.954161416
 H       -0.640168163     0.764798937    -2.979192721
 H       -0.512915995    -0.825058774    -3.720501618
 H       -0.461596266    -2.973989190     0.768466316
 H       -0.650084303    -2.852570618     2.511335170
 H        0.899828640    -2.459466299     1.781757998
 H       -0.659095944     0.865269124     2.874449392
 H        0.775951169    -0.159145034     3.054601787
 H       -0.773288937    -0.681460554     3.703149910

