187   

Si        0.000000000     0.000000000     0.000000000
 C        1.865065347     0.000000000     0.000000000
 C       -0.683167148     1.709203803     0.000000000
 C        0.102296439     2.800841051    -0.383564948
 C       -0.426394653     4.091657361    -0.379561301
 C       -1.751082760     4.319875441     0.001751325
 C       -2.538354756     3.224277111     0.380962031
 C       -2.013565312     1.935039037     0.378478808
 C       -2.348396303     5.650805396     0.022013706
 C       -1.709961699     6.784174430    -0.315329080
 C       -2.313946293     8.112446454    -0.292676195
 C       -1.536174125     9.214908041    -0.669274911
 C       -2.071481910    10.500911136    -0.662631363
 C       -3.395496635    10.716316563    -0.262987982
 C       -4.173930672     9.616181976     0.115804523
 C       -3.639480664     8.329226947     0.095174339
Si       -4.137414607    12.399978564    -0.241026143
 C       -5.335422488    12.588751957     1.126775919
 C       -5.252831220    11.935629983     2.293894142
 C       -6.210825230    12.085594652     3.389614171
 C       -6.015890842    11.345454094     4.565063693
 C       -6.892135016    11.449602120     5.632350311
 C       -7.984167042    12.343693467     5.576084731
 C       -8.179180144    13.089375053     4.396967111
 C       -7.312717662    12.941476897     3.321429191
 N       -8.866048086    12.442871118     6.660468472
 C       -8.349825248    12.168342648     8.010470536
 C       -9.906344588    13.478833361     6.599709937
 C       -7.138341955    13.015213878     8.432773436
 C       -7.527315221    14.479311388     8.696915143
 N       -6.379243390    15.349147120     8.992339013
 C       -5.451198552    15.592839849     7.963020795
 C       -5.777433786    15.372341870     6.608907318
 C       -4.846439651    15.619531482     5.610965032
 C       -3.578577693    16.134303009     5.913713245
 C       -3.267431380    16.380367107     7.254396940
 C       -4.182147520    16.125259582     8.265844913
 C       -5.826743999    15.132335080    10.340915506
 C       -2.624807782    16.380997378     4.830325656
 C       -1.393098522    16.870487176     5.025528964
Si       -0.141790004    17.208726816     3.740236545
 C        0.528127718    18.909615718     3.946405977
 C       -0.182967345    19.866289949     4.678215793
 C        0.323316943    21.156010370     4.835502636
 C        1.541535156    21.520844117     4.255777208
 C        2.248307829    20.562106242     3.517412857
 C        1.748904218    19.271608480     3.363165318
 C        2.109114679    22.858105140     4.394106226
 C        1.535107753    23.865684703     5.073221416
 C        2.101442756    25.203232380     5.212364191
 C        3.321893176    25.569143975     4.638888377
 C        3.826116087    26.859983461     4.797469955
 C        3.114771871    27.816657078     5.528462167
 C        1.889852142    27.452455496     6.103898429
 C        1.392451840    26.161568961     5.949297015
Si        3.767378559    29.524143910     5.746351514
 C        5.156205989    29.884924581     4.554510391
 C        2.337080036    30.751850623     5.480051499
 C        4.414871455    29.729188341     7.524680937
 C        1.264315762    15.938917336     3.910904075
 C       -0.909152415    17.072934184     2.006528245
 C       -2.774915412    13.714412838    -0.078816357
 C       -5.057670646    12.686763441    -1.881346411
 C       -0.619326794    -0.916644672    -1.549054893
 C       -0.650969204    -0.914291279     1.538146767
 H        1.145258048     2.684837084    -0.690903793
 H        0.206589084     4.924823848    -0.679368298
 H       -3.573082353     3.379864002     0.680737935
 H       -2.676064545     1.120136410     0.683535926
 H       -3.394610684     5.676544784     0.341766487
 H       -0.664583136     6.760983721    -0.635801973
 H       -0.502061357     9.068069635    -0.974451371
 H       -1.419319144    11.320691560    -0.975645088
 H       -5.215903106     9.725240214     0.436424888
 H       -4.266844988     7.489808293     0.389701510
 H       -6.146731493    13.304758282     0.928722701
 H       -4.446591791    11.222677296     2.519429987
 H       -5.163348887    10.668270204     4.640573852
 H       -6.730239315    10.836678318     6.513698111
 H       -9.007661956    13.783285523     4.307715664
 H       -7.494343825    13.521572285     2.415490439
 H      -10.509956159    13.474781255     7.521778218
 H      -10.595309938    13.244688200     5.765706280
 H       -9.508405196    14.497093415     6.449343566
 H       -6.627744637    14.851673957    11.043714269
 H       -5.395961104    16.080767953    10.711444423
 H       -5.048729026    14.352024732    10.371128389
 H       -6.752188758    14.981861333     6.328112484
 H       -5.113608932    15.408551479     4.573733774
 H       -2.288963378    16.783992220     7.520703717
 H       -3.902714069    16.339767487     9.292059962
 H       -3.018751843    16.127894182     3.837634800
 H       -1.031902705    17.103536560     6.041860738
 H       -1.145504144    19.639232121     5.148706789
 H       -0.244831108    21.881493522     5.414922742
 H        3.198725503    20.826463977     3.058128235
 H        2.344374007    18.564937060     2.778913517
 H        3.070263185    23.001418929     3.891960419
 H        0.573341550    23.721929692     5.574501166
 H        3.892650536    24.844531121     4.061059355
 H        4.786419592    27.086545356     4.326145143
 H        1.289852323    28.158259471     6.685246352
 H        0.439998514    25.897100253     6.404823586
 H       -9.178883173    12.292152414     8.742570909
 H       -8.078486768    11.084988214     8.050390509
 H       -6.674787953    12.576933319     9.335315214
 H       -6.350541739    12.973432734     7.650225156
 H       -8.067151040    14.908187837     7.821356849
 H       -8.241172050    14.543953205     9.548720258
 H        2.262696503    -1.029831772     0.040336160
 H        2.260326815     0.543408382     0.877612552
 H        2.275702822     0.479612636    -0.905655623
 H        5.516713647    30.923166679     4.665657834
 H        4.822252400    29.759921302     3.508404311
 H        6.018563191    29.214593305     4.715483427
 H        1.568558497    30.507189261     6.269954265
 C        2.748589422    32.223460568     5.663742145
 C        1.666817221    30.586394029     4.104207124
 H        4.842416836    30.772130021     7.575485949
 C        3.316793816    29.611946363     8.596861445
 C        5.540921019    28.734535197     7.861240373
 H        1.963133184    16.128645649     3.045898039
 C        2.063234145    16.119332686     5.214402752
 C        0.776416102    14.482630586     3.821177164
 H       -1.458056910    16.084942130     1.989761799
 C       -1.932757307    18.191494469     1.738462752
 C        0.127301113    17.063379045     0.869795771
 H       -2.120273044    13.592212725    -0.990035926
 C       -3.320108461    15.152978479    -0.076380098
 C       -1.900605373    13.505269664     1.169888381
 H       -5.480323299    13.731010871    -1.824211155
 C       -4.138459552    12.609572108    -3.112635538
 C       -6.229335472    11.706654291    -2.070253504
 H       -0.138175844    -1.936535511    -1.514464347
 C       -2.146114299    -1.109991373    -1.576222115
 C       -0.185673740    -0.228049240    -2.856049773
 H       -1.775264015    -0.928379996     1.437778695
 C       -0.169698773    -2.373020384     1.634337148
 C       -0.304246866    -0.184485486     2.848494158
 H        3.174822515    32.435890481     6.652715466
 H        1.867985019    32.874483924     5.562716744
 H        3.469423274    32.563858729     4.908554678
 H        1.298206699    29.566852654     3.920863411
 H        2.328287157    30.853432659     3.269400837
 H        0.791461054    31.247132151     4.028962081
 H        2.515388706    30.352773448     8.482764033
 H        3.747540526    29.778244251     9.595069551
 H        2.854034805    28.615323908     8.626570938
 H        6.404553166    28.808742960     7.187971704
 H        5.202457688    27.688345534     7.854264978
 H        5.923711723    28.926971676     8.873795255
 H        2.484901652    17.127532181     5.331566067
 H        2.916403123    15.426533762     5.232543358
 H        1.470480471    15.901206343     6.113350843
 H        0.267754882    14.250105329     2.876398179
 H        0.095444460    14.208683759     4.640348778
 H        1.630180069    13.793663868     3.888332356
 H       -2.740050672    18.233590926     2.483222184
 H       -2.418566612    18.037733939     0.764925211
 H       -1.472664956    19.189431922     1.697181652
 H        0.830090722    16.222549637     0.929204251
 H        0.715140199    17.990627591     0.818597412
 H       -0.378359841    16.971652060    -0.102477771
 H       -3.913937982    15.397991480    -0.965599917
 H       -2.484656398    15.869833919    -0.062432079
 H       -3.933877588    15.375400887     0.808154609
 H       -1.478980594    12.493817487     1.250016279
 H       -2.441391939    13.708122876     2.106578468
 H       -1.041617580    14.192561401     1.142512695
 H       -3.326902273    13.348157085    -3.097920369
 H       -4.716491814    12.807615308    -4.026947327
 H       -3.685386128    11.616799744    -3.246970025
 H       -6.965379452    11.743799391    -1.255602567
 H       -5.900089648    10.662474671    -2.173028912
 H       -6.777480385    11.947055727    -2.992219325
 H       -2.528006062    -1.682584856    -0.721588348
 H       -2.437595454    -1.671730221    -2.475653026
 H       -2.696366168    -0.159242390    -1.618482347
 H        0.902432343    -0.123001178    -2.953958468
 H       -0.629471090     0.770336688    -2.980053692
 H       -0.515747378    -0.820400466    -3.721491172
 H       -0.441262225    -2.979227663     0.760513835
 H       -0.631231168    -2.863788365     2.503585645
 H        0.915982170    -2.457311892     1.775646850
 H       -0.665842173     0.853461965     2.876012859
 H        0.773841965    -0.164105648     3.056200877
 H       -0.773732027    -0.695924770     3.700809020

