187   

Si        0.000000000     0.000000000     0.000000000
 C        1.864996820     0.000000000     0.000000000
 C       -0.678763028     1.711317859     0.000000000
 C        0.090034394     2.788071588     0.453917405
 C       -0.429930555     4.082254165     0.451392875
 C       -1.729444075     4.329125253     0.001037450
 C       -2.500524297     3.248500352    -0.447588839
 C       -1.984656656     1.955481102    -0.445470622
 C       -2.316155457     5.664801374    -0.020335954
 C       -1.690164889     6.784349955     0.380679158
 C       -2.281911921     8.118052904     0.357125157
 C       -1.518466961     9.203854552     0.804641332
 C       -2.042733199    10.494581442     0.799991092
 C       -3.339448204    10.731729407     0.330351557
 C       -4.103227998     9.648221767    -0.120640571
 C       -3.580739412     8.356488986    -0.101926006
Si       -4.072551146    12.418892330     0.305600878
 C       -5.124677023    12.667743854    -1.168988026
 C       -4.918710562    12.059197417    -2.344920910
 C       -5.754893555    12.251881260    -3.530181044
 C       -5.435262743    11.556220546    -4.704380624
 C       -6.193863918    11.702364127    -5.854657663
 C       -7.347325503    12.515842155    -5.853305864
 C       -7.671086602    13.211241733    -4.671717349
 C       -6.870689501    13.093392739    -3.543130620
 N       -8.118278109    12.665065943    -7.020237158
 C       -8.075787838    11.571099931    -8.005941591
 C       -9.469791531    13.228384982    -6.856338015
 C       -8.660468435    10.253041426    -7.473180208
 C       -8.437767391     9.118110534    -8.485558737
 N       -9.025067336     7.836567694    -8.057121553
 C      -10.424753779     7.779288753    -7.927804152
 C      -11.249039620     8.609132791    -8.717699299
 C      -12.627974970     8.554751214    -8.592353141
 C      -13.242670806     7.644462626    -7.721424518
 C      -12.426526144     6.800257655    -6.963432511
 C      -11.042634802     6.854415089    -7.063563803
 C       -8.232770915     7.173364170    -7.006751989
 C      -14.703118540     7.629809246    -7.628170876
 C      -15.398482905     6.806009597    -6.832394914
Si      -17.222785842     6.784602272    -6.713053543
 C      -18.027585023     7.286646521    -8.289099607
 C      -17.403960185     7.008604372    -9.510922328
 C      -18.001880673     7.383014508   -10.713083730
 C      -19.241413234     8.028983763   -10.723361110
 C      -19.868663934     8.297398085    -9.499791077
 C      -19.271485184     7.929167644    -8.296617910
 C      -19.904533245     8.438981612   -11.956744535
 C      -19.412585009     8.242220348   -13.191708955
 C      -20.075344391     8.652040602   -14.425329956
 C      -21.311963692     9.302294022   -14.436757234
 C      -21.910013881     9.676599709   -15.639985212
 C      -21.279280900     9.413863005   -16.859999338
 C      -20.038381701     8.762313479   -16.851262196
 C      -19.446780341     8.384728189   -15.649118043
Si      -22.054672981     9.901115636   -18.456839653
 C      -23.497502565    11.054474787   -18.196222406
 C      -20.726741241    10.740354767   -19.531959856
 C      -22.673991241     8.346148464   -19.363406446
 C      -17.772027038     5.013800302    -6.286560153
 C      -17.759118855     7.946499716    -5.305047007
 C       -5.148375480    12.643347305     1.858333425
 C       -2.704183694    13.740500160     0.316342247
 C       -0.648207477    -0.917222162    -1.537603115
 C       -0.626262160    -0.912501419     1.548440869
 H        1.113389041     2.657397832     0.816601830
 H        0.189957963     4.903421839     0.806737723
 H       -3.515740099     3.418494843    -0.800913612
 H       -2.634391286     1.152652939    -0.804785503
 H       -3.342239987     5.706596833    -0.397704465
 H       -0.664703081     6.744305763     0.759073799
 H       -0.504749121     9.040131361     1.164904271
 H       -1.403214835    11.300619558     1.169652489
 H       -5.123347132     9.775157857    -0.499426919
 H       -4.196024431     7.530413968    -0.453343680
 H       -5.949621835    13.382399234    -1.031289117
 H       -4.096446156    11.347553526    -2.508443017
 H       -4.565915677    10.897041096    -4.720654836
 H       -5.892896680    11.175479230    -6.755080337
 H       -8.542611272    13.856494924    -4.629406315
 H       -7.134790682    13.658147213    -2.647686255
 H       -9.993157332    13.249507027    -7.826878782
 H       -9.386714172    14.276623063    -6.516357576
 H      -10.092837240    12.667681853    -6.139974875
 H       -7.155845711     7.324812802    -7.190765690
 H       -8.413419459     6.084045815    -7.050661030
 H       -8.463579465     7.534228924    -5.990732220
 H      -10.810192620     9.305085972    -9.426404289
 H      -13.243795413     9.223667702    -9.195431541
 H      -12.877812498     6.080538636    -6.278657704
 H      -10.447986244     6.178365633    -6.457741542
 H      -15.185433789     8.365295851    -8.287846070
 H      -14.890082354     6.084811324    -6.174555648
 H      -16.436119967     6.498105076    -9.565484407
 H      -17.493113909     7.162535240   -11.649806630
 H      -20.834634737     8.798276007    -9.485736735
 H      -19.808807884     8.164431387    -7.373987160
 H      -20.867881520     8.937326928   -11.814406916
 H      -18.449721871     7.742640166   -13.334057240
 H      -21.822271923     9.521935769   -13.500769627
 H      -22.878735947    10.180929432   -15.585016273
 H      -19.498527368     8.531342813   -17.773997899
 H      -18.483846952     7.877611027   -15.662767778
 H       -8.626722822    11.900581010    -8.916253358
 H       -7.019620358    11.432381727    -8.332605508
 H       -8.197670084     9.994187023    -6.500687987
 H       -9.740546722    10.370078861    -7.259477282
 H       -8.861893840     9.387033991    -9.479860426
 H       -7.348831154     8.960148702    -8.659849166
 H        2.262718147    -1.029587058    -0.046048881
 H        2.276684411     0.475055181     0.907523106
 H        2.259362004     0.548151346    -0.875124494
 H      -23.928173715    11.377060792   -19.160998231
 H      -23.184589183    11.964156043   -17.652191941
 H      -24.304985534    10.574995932   -17.615657400
 H      -19.914513558     9.969876299   -19.677253933
 C      -21.235771947    11.156480602   -20.923436870
 C      -20.096441985    11.963478408   -18.841466048
 H      -23.190821687     8.722258224   -20.293334781
 C      -21.546617014     7.392760946   -19.798026402
 C      -23.700170059     7.550579874   -18.535851991
 H      -17.268127168     4.756768741    -5.310538726
 C      -19.292268729     4.883276211    -6.088963781
 C      -17.315472410     3.992843053    -7.344136080
 H      -18.879806571     7.844756283    -5.224406094
 C      -17.149491298     7.569959774    -3.942893755
 C      -17.432256535     9.419779593    -5.608282677
 H       -5.563991418    13.690616535     1.800453243
 C       -6.333047388    11.661250544     1.895880676
 C       -4.351800068    12.516150083     3.168501006
 H       -2.101972456    13.559972630     1.253148219
 C       -1.760743699    13.614896939    -0.893451992
 C       -3.250446493    15.178419324     0.373917961
 H       -1.772960312    -0.926936030    -1.442133055
 C       -0.292426771    -0.194251813    -2.849337890
 C       -0.172663624    -2.378397832    -1.626272430
 H       -0.153700534    -1.936373337     1.514226279
 C       -0.188221483    -0.227896078     2.856092509
 C       -2.154821597    -1.092131561     1.572966396
 H      -21.636092636    10.318407245   -21.508446876
 H      -20.409422057    11.576736314   -21.515109044
 H      -22.009232693    11.934774416   -20.881563655
 H      -19.656353275    11.729174935   -17.861538373
 H      -20.806751331    12.788154405   -18.696380780
 H      -19.278634126    12.364287781   -19.457164848
 H      -20.809254137     7.862595648   -20.461087334
 H      -21.967342045     6.545921388   -20.359721228
 H      -21.006051456     6.955405611   -18.946783009
 H      -24.582873785     8.138226093   -18.252675046
 H      -23.271588350     7.129281935   -17.615005595
 H      -24.074100467     6.696970760   -19.119211837
 H      -19.682606986     5.513874593    -5.280112019
 H      -19.549317966     3.847973347    -5.821791838
 H      -19.863765888     5.114279159    -6.999435294
 H      -16.228371380     3.984972638    -7.502770755
 H      -17.792094086     4.149514900    -8.322645472
 H      -17.588622348     2.975709869    -7.029521019
 H      -17.401138872     6.552200155    -3.618703970
 H      -17.531121023     8.243293706    -3.161826812
 H      -16.054883791     7.667654130    -3.923471845
 H      -17.882984978     9.783941631    -6.541966137
 H      -16.351335748     9.613684079    -5.666575991
 H      -17.818795539    10.065313251    -4.807273351
 H       -6.983349278    11.727599763     1.012977420
 H       -6.971190161    11.873328327     2.765405978
 H       -6.015622086    10.613364562     1.997015977
 H       -3.540420220    13.249649303     3.258580769
 H       -3.916100645    11.516540816     3.309291091
 H       -5.014584665    12.684560311     4.029661940
 H       -1.284065570    12.628569056    -0.977109306
 H       -0.944223958    14.346153404    -0.813549687
 H       -2.264695427    13.818505069    -1.849748521
 H       -3.872667967    15.373830513     1.256447115
 H       -3.835467076    15.448917499    -0.516344876
 H       -2.417465286    15.894692903     0.422134265
 H       -0.648493562     0.845322829    -2.882764136
 H       -0.760341454    -0.706919749    -3.701752789
 H        0.786737979    -0.180082381    -3.052221021
 H       -0.454527893    -2.981232808    -0.753338166
 H        0.913714816    -2.468251884    -1.758344696
 H       -0.629149008    -2.869070976    -2.498234664
 H        0.900687848    -0.133523662     2.955780881
 H       -0.525496281    -0.817325173     3.720835477
 H       -0.622874381     0.774550303     2.979528906
 H       -2.540138018    -1.662416097     0.718317317
 H       -2.696732105    -0.136437439     1.612257790
 H       -2.453210509    -1.650009079     2.472549263

