187   

Si        0.000000000     0.000000000     0.000000000
 C        1.865280931     0.000000000     0.000000000
 C       -0.682220376     1.709533458     0.000000000
 C        0.128848684     2.812141530     0.286221692
 C       -0.400904198     4.102402186     0.282824114
 C       -1.752232198     4.319129605     0.001433214
 C       -2.564577928     3.212706717    -0.281132670
 C       -2.038231368     1.924023884    -0.281963920
 C       -2.350446268     5.649901322    -0.013600709
 C       -1.686103644     6.791242838     0.235429631
 C       -2.286130096     8.121359417     0.219934414
 C       -3.638690956     8.333789513    -0.062111935
 C       -4.171491687     9.622048379    -0.066365102
 C       -3.356890748    10.727996276     0.198977245
 C       -2.001018537    10.519501469     0.480613561
 C       -1.475054194     9.230056347     0.495496135
Si       -4.049045880    12.431954257     0.196010139
 C       -2.717095656    13.641965398    -0.122294742
 C       -2.466571994    14.740854007     0.601218814
 C       -1.387008650    15.686126354     0.311348547
 C       -1.222395876    16.803812938     1.142464685
 C       -0.216926348    17.727910028     0.911781204
 C        0.639023182    17.590146237    -0.203017991
 C        0.473737527    16.469240464    -1.038286901
 C       -0.509978497    15.527157280    -0.764504515
 N        1.654267677    18.536449678    -0.422807788
 C        1.383512942    19.929001039    -0.022259362
 C        2.430698157    18.410198447    -1.665055806
 C        0.128383485    20.558011611    -0.651007849
 C        0.354598723    21.120647628    -2.064762424
 N        0.945645772    22.470143465    -2.115778898
 C        0.276754002    23.495294766    -1.425332915
 C       -1.132724454    23.475730088    -1.339194055
 C       -1.808081408    24.477804081    -0.662787851
 C       -1.120754402    25.558034882    -0.089746057
 C        0.271123448    25.591804977    -0.202637499
 C        0.966143394    24.586383641    -0.863397923
 C        2.415355977    22.483365462    -2.075705356
 C       -1.885908937    26.588374449     0.613543397
 C       -1.341947887    27.663672618     1.199436274
Si       -2.302196797    28.948728524     2.077244842
 C       -3.993255992    29.140088676     1.379077744
 C       -4.208855913    28.928784753     0.012240342
 C       -5.483477144    29.069339982    -0.533952227
 C       -6.567903088    29.436447994     0.268141201
 C       -6.348076466    29.656074805     1.634199782
 C       -5.076452633    29.512295236     2.184118841
 C       -7.918762564    29.595300252    -0.260105240
 C       -8.262584104    29.414812837    -1.546585900
 C       -9.612907589    29.573303842    -2.076177908
 C      -10.699282981    29.935982586    -1.275912378
 C      -11.973929995    30.076263686    -1.824465057
 C      -12.190834618    29.849181566    -3.187089254
 C      -11.102858099    29.484561153    -3.991926714
 C       -9.830615925    29.351521642    -3.442713712
Si      -13.867004054    30.030093007    -3.926441295
 C      -15.190216902    30.116070342    -2.614573167
 C      -13.930773062    31.622195052    -4.967748308
 C      -14.177491216    28.545048519    -5.076304151
 C       -2.400233531    28.489763866     3.920979723
 C       -1.382228608    30.605309281     1.907613003
 C       -5.349095229    12.592775369    -1.184728416
 C       -4.895660236    12.756320731     1.867726150
 C       -0.654963892    -0.905100335    -1.541486988
 C       -0.611037833    -0.925360379     1.547235222
 H        1.192949635     2.705187207     0.514276998
 H        0.252575464     4.944142746     0.504894714
 H       -3.619821718     3.359527876    -0.503377606
 H       -2.720206263     1.100550460    -0.511918006
 H       -3.418513898     5.668109046    -0.249386933
 H       -0.618092118     6.773731795     0.471679944
 H       -4.290226419     7.489555184    -0.279146345
 H       -5.237115594     9.725624802    -0.288185685
 H       -1.319593748    11.349001036     0.697116356
 H       -0.420082141     9.085698695     0.721051730
 H       -2.107579667    13.393657656    -1.007213223
 H       -3.059290946    15.020042030     1.482358297
 H       -1.888945544    16.945059999     1.994219897
 H       -0.093670884    18.562216052     1.596764477
 H        1.113083895    16.319076300    -1.901708714
 H       -0.604142786    14.658179253    -1.418190636
 H        3.192065302    19.205757139    -1.718780383
 H        1.814828168    18.450740138    -2.578453473
 H        2.977471388    17.448203260    -1.650223205
 H        2.818293198    21.629232060    -2.644457837
 H        2.831266830    22.453611052    -1.055193327
 H        2.779183464    23.399523884    -2.578590339
 H       -1.697678357    22.670530045    -1.800585763
 H       -2.895875599    24.431000041    -0.588843613
 H        0.831034393    26.420923408     0.232657138
 H        2.046827948    24.654145536    -0.925853428
 H       -2.969148907    26.398757611     0.610547664
 H       -0.253833017    27.826526064     1.196607732
 H       -3.396857856    28.645229299    -0.666395553
 H       -5.626532353    28.892521857    -1.598510579
 H       -7.178534763    29.943284700     2.276107270
 H       -4.966441707    29.697682877     3.255948262
 H       -8.669643211    29.882276703     0.481746137
 H       -7.511247937    29.128223054    -2.288467679
 H      -10.557929574    30.114018160    -0.211433585
 H      -12.784142860    30.363162057    -1.148437503
 H      -11.212458507    29.293778956    -5.063253618
 H       -8.997952717    29.069427534    -4.084387602
 H        1.291207914    19.943081277     1.090819852
 H        2.282017851    20.544293021    -0.246482815
 H       -0.688610611    19.807946223    -0.683374918
 H       -0.249676894    21.361575458     0.014235716
 H        0.990477373    20.431069276    -2.661590243
 H       -0.619584367    21.163743211    -2.609697990
 H        2.262804414    -1.030075953    -0.035786659
 H        2.275468392     0.483279548     0.903996779
 H        2.261160325     0.539022942    -0.879935236
 H      -16.195455314    30.185752663    -3.067335176
 H      -15.060138777    30.993918986    -1.957745557
 H      -15.175247939    29.212780214    -1.977884415
 H      -14.990483831    31.694055196    -5.348812228
 C      -13.635746685    32.884335246    -4.136741150
 C      -12.988375159    31.601373084    -6.184529808
 H      -13.374613460    28.594493684    -5.868392378
 C      -14.038029537    27.196028656    -4.348036710
 C      -15.542186604    28.592956269    -5.786188604
 H       -2.945068385    29.338391614     4.426747267
 C       -3.200700909    27.196678899     4.158373719
 C       -1.018789770    28.350570022     4.585375922
 H       -0.360633193    30.442684171     2.357524505
 C       -1.196749965    31.020072239     0.436948630
 C       -2.063242983    31.755371820     2.669730920
 H       -6.162046294    11.851308883    -0.934774188
 C       -5.985594268    13.992080082    -1.251706790
 C       -4.785553147    12.230360924    -2.570343024
 H       -5.219026265    13.837273767     1.847225873
 C       -6.147922884    11.890190652     2.093479730
 C       -3.939381454    12.561754219     3.058515363
 H       -1.779415447    -0.911505258    -1.441521826
 C       -0.303116292    -0.172405566    -2.848871984
 C       -0.182887930    -2.366398157    -1.642787483
 H       -0.119086440    -1.940162726     1.508645032
 C       -0.182307310    -0.236068950     2.855539553
 C       -2.135289796    -1.136879328     1.578051296
 H      -14.323696130    33.021623350    -3.292626410
 H      -13.737527089    33.781127474    -4.764631378
 H      -12.611248327    32.903161461    -3.737823456
 H      -13.196716623    30.780901607    -6.882722601
 H      -11.927620424    31.544189936    -5.902079777
 H      -13.100428002    32.530558404    -6.762181859
 H      -13.062842591    27.066554326    -3.856979631
 H      -14.132421901    26.368483434    -5.065474228
 H      -14.814468367    27.036324258    -3.588191662
 H      -15.686872290    29.498311900    -6.389716273
 H      -16.389339778    28.514632531    -5.091982887
 H      -15.634310027    27.744135319    -6.479381956
 H       -4.226191710    27.239378380     3.765756828
 H       -3.291311337    27.000476104     5.235882954
 H       -2.718063854    26.309721602     3.722776717
 H       -0.411955195    29.262957332     4.525359286
 H       -0.425891435    27.524600790     4.168132778
 H       -1.137691404    28.131831050     5.656391165
 H       -0.664933252    30.270212315    -0.164528779
 H       -0.601552611    31.942226453     0.377126226
 H       -2.148939108    31.236297826    -0.068875406
 H       -2.145262267    31.574678728     3.749034752
 H       -3.069991028    31.983118506     2.290815440
 H       -1.478332983    32.679774974     2.557162800
 H       -6.488762230    14.286550022    -0.321715826
 H       -6.753070496    14.019486117    -2.038308743
 H       -5.260956469    14.780278142    -1.501744434
 H       -4.348300410    11.222791078    -2.612983599
 H       -4.022279499    12.938718708    -2.920544182
 H       -5.589087862    12.247741623    -3.320241904
 H       -6.930222749    12.050702867     1.340868878
 H       -6.603219524    12.134075313     3.064419173
 H       -5.925025103    10.814202407     2.123536307
 H       -3.031903485    13.178129105     2.999794613
 H       -3.618446047    11.516874558     3.179702183
 H       -4.441793730    12.839654857     3.995644954
 H       -0.659546703     0.867434557    -2.872803538
 H       -0.774833326    -0.678075484    -3.703399636
 H        0.775146636    -0.157011787    -3.055757717
 H       -0.462416470    -2.975081028    -0.773199136
 H        0.902808937    -2.457195868    -1.779762039
 H       -0.643707773    -2.849685416    -2.516588533
 H        0.904836735    -0.119995149     2.952039267
 H       -0.505013262    -0.834256460     3.719745674
 H       -0.635769533     0.757523638     2.982946837
 H       -2.513895266    -1.704269022     0.718552628
 H       -2.696161804    -0.193230231     1.633908130
 H       -2.416314658    -1.712221211     2.472271518

