187   

Si        0.000000000     0.000000000     0.000000000
 C        1.865758040     0.000000000     0.000000000
 C       -0.682457217     1.708684303     0.000000000
 C        0.152466536     2.822188895     0.134017526
 C       -0.379718977     4.111044060     0.132194179
 C       -1.755630307     4.315942803    -0.003145767
 C       -2.590784885     3.199326589    -0.137991842
 C       -2.062387381     1.911442815    -0.137363721
 C       -2.352368137     5.647265685    -0.009946407
 C       -1.651574798     6.787049876     0.110953622
 C       -2.223403389     8.127510715     0.107139779
 C       -3.591372957     8.375964514    -0.025550312
 C       -4.079400341     9.683358306    -0.021981073
 C       -3.208833257    10.765893531     0.130349399
 C       -1.836211478    10.517920904     0.263554997
 C       -1.352016813     9.214875626     0.244023182
Si       -3.771304856    12.515098518     0.145727559
 C       -3.086200299    13.372763143     1.615470275
 C       -2.821071154    12.740649195     2.767410404
 C       -2.274550527    13.381970969     3.965774542
 C       -2.045102792    12.596196962     5.107099849
 C       -1.530018148    13.151818525     6.266061076
 C       -1.273734569    14.535164283     6.340122141
 C       -1.503839735    15.323138564     5.202920402
 C       -1.975931730    14.743708263     4.028083311
 N       -0.742766694    15.051375607     7.560494976
 C       -1.651130829    14.773628215     8.706884796
 C       -0.282753248    16.449067535     7.495310124
 C       -1.161277904    15.319903224    10.056729195
 C        0.186802301    14.731188380    10.519474565
 N        0.167727326    13.314205081    10.929124503
 C        0.166471844    12.368954298     9.877102060
 C        1.134489959    12.515889090     8.859448916
 C        1.177856461    11.620861986     7.808945470
 C        0.331943210    10.497731536     7.779741480
 C       -0.594753510    10.330417460     8.806330715
 C       -0.686261837    11.255075158     9.844906024
 C       -0.741566850    13.048603577    12.054554186
 C        0.444731069     9.603517573     6.630743793
 C       -0.267467518     8.488099489     6.418614383
Si        0.018207589     7.486660743     4.903677207
 C        0.563877444     8.683186592     3.608012073
 C       -0.034220728     9.951297619     3.643311622
 C        0.305340054    10.925684640     2.713668827
 C        1.271939339    10.669839954     1.735741308
 C        1.868041913     9.403944694     1.697291005
 C        1.508044787     8.414190107     2.614387718
 C        1.636594867    11.686344140     0.753857308
 C        1.099724690    12.918731864     0.739105312
 C        1.421719005    13.973916907    -0.212245415
 C        2.351076031    13.811094047    -1.241194947
 C        2.622265920    14.855502388    -2.125766805
 C        1.973369943    16.086476540    -1.991836132
 C        1.044290803    16.254040805    -0.955453576
 C        0.774509306    15.210708251    -0.076230491
Si        2.315200113    17.477322556    -3.146363560
 C        3.843258248    17.168586375    -4.169525654
 C        0.820484835    17.675700178    -4.310118124
 C        2.512210798    19.072931538    -2.128327831
 C        1.343034716     6.164541855     5.212812768
 C       -1.608839074     6.652665739     4.385747826
 C       -3.221193409    13.388010697    -1.450997973
 C       -5.669810166    12.611697026     0.259725297
 C       -0.666969223    -0.901061558    -1.537142265
 C       -0.590554000    -0.920611652     1.559149088
 H        1.236094464     2.724473852     0.242536948
 H        0.292776998     4.961395332     0.236162405
 H       -3.664751894     3.337253257    -0.246019233
 H       -2.762245195     1.078750598    -0.250508012
 H       -3.438837295     5.667562214    -0.123125907
 H       -0.561704796     6.761144829     0.222132080
 H       -4.288044951     7.548216761    -0.136540321
 H       -5.156916580     9.818169310    -0.141401891
 H       -1.103270635    11.325822151     0.385600602
 H       -0.280217129     9.040892317     0.349730508
 H       -2.924534019    14.453020337     1.498940669
 H       -2.983561980    11.659561600     2.897725181
 H       -2.268953434    11.527924518     5.084158641
 H       -1.308003008    12.513529737     7.123420950
 H       -1.322627615    16.392761502     5.221680862
 H       -2.130076805    15.375854523     3.153842865
 H        0.321309151    16.670699483     8.391507280
 H       -1.093348529    17.189911601     7.425125853
 H        0.392723068    16.571382550     6.629330369
 H       -0.574589945    13.800548752    12.844167797
 H       -0.494955067    12.063196116    12.490426948
 H       -1.809308724    13.057683964    11.784272913
 H        1.826602004    13.355272507     8.883607447
 H        1.894583137    11.779801653     7.000991579
 H       -1.264403957     9.470833193     8.800060497
 H       -1.432562627    11.103852951    10.616769644
 H        1.217291831     9.949277893     5.920572102
 H       -1.020421438     8.127925330     7.127205385
 H       -0.798512933    10.219021858     4.384068832
 H       -0.189246519    11.898271558     2.767049790
 H        2.619183449     9.183656727     0.942601622
 H        1.992558260     7.439422821     2.530025442
 H        2.382655653    11.383383815     0.017634880
 H        0.354059457    13.206451093     1.492048049
 H        2.869801096    12.862297902    -1.363493467
 H        3.357099424    14.670667875    -2.913851528
 H        0.509948913    17.195740366    -0.802241988
 H        0.053851795    15.358828515     0.727357886
 H       -2.672760010    15.170045303     8.508317229
 H       -1.744155031    13.662494989     8.786301430
 H       -1.077606553    16.422407077    10.018604571
 H       -1.940860660    15.114219223    10.816628864
 H        0.939717520    14.859924469     9.705791620
 H        0.566015519    15.315392229    11.389550245
 H        2.263115641    -1.030601826    -0.016066653
 H        2.273283272     0.499984942     0.896175898
 H        2.263842547     0.521916528    -0.888956380
 H        4.055594938    18.023428203    -4.836228157
 H        3.737093549    16.270967084    -4.803627526
 H        4.728854959    17.022919977    -3.524452631
 H        1.096633829    18.502355707    -5.025885771
 C        0.542170693    16.403170208    -5.131413616
 C       -0.475033698    18.083610346    -3.585446057
 H        1.534645328    19.215043378    -1.582073935
 C        3.628494339    18.964210609    -1.073731118
 C        2.755842263    20.324359835    -2.990419549
 H        1.463522864     5.612418267     4.235235734
 C        2.706280613     6.773073610     5.589401108
 C        0.940286214     5.142373012     6.290918200
 H       -2.052807250     6.233198957     5.334727080
 C       -2.616077654     7.651864020     3.787725099
 C       -1.417855288     5.488184633     3.400342153
 H       -3.487738983    14.475914795    -1.314334983
 C       -1.707717800    13.296246938    -1.701738277
 C       -3.956080622    12.868028177    -2.700336048
 H       -6.064507843    11.996306166    -0.599190833
 C       -6.211704072    12.012767981     1.570569134
 C       -6.215951183    14.043024324     0.109139140
 H       -1.791535881    -0.888661964    -1.437467067
 C       -0.303488888    -0.179275355    -2.847454054
 C       -0.217294742    -2.369854703    -1.631724492
 H       -0.050170390    -1.911115985     1.547841797
 C       -0.207933921    -0.181219312     2.854881049
 C       -2.102557814    -1.206020196     1.584431057
 H        1.392876922    16.087699330    -5.749040778
 H       -0.292370697    16.578027774    -5.825525527
 H        0.249069552    15.546966258    -4.506694303
 H       -0.385605106    19.023977354    -3.027338939
 H       -0.836030884    17.311183687    -2.891408138
 H       -1.281077535    18.238159961    -4.317535005
 H        3.493016872    18.118578680    -0.384198308
 H        3.647509737    19.869051352    -0.449733661
 H        4.629365584    18.872733155    -1.516152193
 H        1.959318626    20.509549364    -3.722615010
 H        3.709109240    20.290890419    -3.534458812
 H        2.798869533    21.217973441    -2.350775994
 H        3.096053803     7.471833557     4.836639781
 H        3.458840118     5.979129561     5.692561370
 H        2.685297229     7.304600892     6.551958344
 H        0.000837087     4.619581359     6.068287078
 H        0.844062393     5.591568032     7.289080711
 H        1.711524589     4.363798909     6.377971535
 H       -2.838506350     8.501459483     4.445533437
 H       -3.574389668     7.150311983     3.593972232
 H       -2.287369606     8.057773481     2.816822677
 H       -0.805073392     4.670085951     3.798373720
 H       -0.977407664     5.800414088     2.442579120
 H       -2.392082581     5.044292332     3.146341024
 H       -1.099433221    13.663586638    -0.862987706
 H       -1.427539440    13.910450566    -2.569461572
 H       -1.371577304    12.274644287    -1.930056726
 H       -5.045725366    12.982902690    -2.648769393
 H       -3.741706107    11.810830263    -2.912543733
 H       -3.629546339    13.429446745    -3.587920477
 H       -5.900880992    10.973007534     1.741597547
 H       -7.310340914    12.008454087     1.557995863
 H       -5.914953671    12.592746866     2.456819227
 H       -5.937170951    14.519016677    -0.839711853
 H       -5.899715210    14.708598771     0.923995161
 H       -7.315147919    14.029866348     0.133350436
 H       -0.645408719     0.865344348    -2.876234736
 H       -0.782261908    -0.681837101    -3.699959821
 H        0.774907567    -0.180369133    -3.053817844
 H       -0.505524020    -2.970038042    -0.759053304
 H        0.866861129    -2.477750521    -1.768467632
 H       -0.685719092    -2.850116192    -2.503149514
 H        0.871602148    -0.011669170     2.958397496
 H       -0.510852572    -0.773928122     3.729816470
 H       -0.708538867     0.792940103     2.953919299
 H       -2.453285941    -1.781042270     0.718220790
 H       -2.707649655    -0.291156367     1.650908205
 H       -2.355897444    -1.804473726     2.471766141

