187   

Si        0.000000000     0.000000000     0.000000000
 C        1.865569458     0.000000000     0.000000000
 C       -0.656248271     1.720523957     0.000000000
 C        0.079276719     2.753381826     0.591945959
 C       -0.408813431     4.059275437     0.597191207
 C       -1.644962310     4.362902604     0.019853026
 C       -2.383489163     3.326425180    -0.565621911
 C       -1.898227768     2.021025672    -0.573276537
 C       -2.193107507     5.715272829     0.003288066
 C       -1.583259706     6.791133347     0.529116334
 C       -2.124007160     8.146108471     0.516875953
 C       -3.358064463     8.461933379    -0.056985896
 C       -3.834973594     9.772913803    -0.044978363
 C       -3.092708896    10.793196236     0.556197767
 C       -1.855158562    10.478730060     1.135595444
 C       -1.376726319     9.172369589     1.110984624
Si       -3.679695732    12.535782089     0.597104748
 C       -3.210370567    13.350910404     2.165866792
 C       -3.070350757    12.712419416     3.335057045
 C       -2.694744669    13.367935352     4.588041712
 C       -2.579667835    12.591402078     5.749185428
 C       -2.227017481    13.161589645     6.961589769
 C       -1.931865518    14.539723699     7.045067113
 C       -2.067205150    15.321777180     5.882965407
 C       -2.480841291    14.745106223     4.689278698
 N       -1.574339945    15.108431896     8.283909521
 C       -0.823375714    14.242285442     9.217463040
 C       -1.066616559    16.491204982     8.243466136
 C        0.401357506    13.520123727     8.624246774
 C        1.684355314    14.373974122     8.620672705
 N        2.481493059    14.294546899     7.373746218
 C        1.856325310    15.004582783     6.296963372
 C        2.042301767    16.397443883     6.289548187
 C        1.473476870    17.164539703     5.285077035
 C        0.690026083    16.572092460     4.283251177
 C        0.526701006    15.184420963     4.289339573
 C        1.127577461    14.398458668     5.268589461
 C        2.895540537    12.920165924     7.040692676
 C        0.115495007    17.435439524     3.248207847
 C       -0.648661347    17.002868199     2.237428976
Si       -1.370355542    18.073595430     0.940449787
 C       -0.984341842    17.349192276    -0.703319810
 C        0.219698856    16.661772934    -0.892221365
 C        0.528228965    16.106023898    -2.133019930
 C       -0.355598547    16.226787605    -3.209399284
 C       -1.557619582    16.920591929    -3.018126144
 C       -1.867965689    17.479699341    -1.781113923
 C       -0.074488065    15.661774503    -4.524542381
 C        1.037339180    14.976142452    -4.839896929
 C        1.318744038    14.410900278    -6.155273474
 C        0.437547904    14.533552126    -7.232522345
 C        0.746668995    13.977262439    -8.473608972
 C        1.948232505    13.287918066    -8.664742943
 C        2.833355514    13.162443478    -7.585267843
 C        2.519859366    13.714766391    -6.346589964
Si        2.370264285    12.548211538   -10.296952375
 C        1.266799391    13.200663642   -11.651957801
 C        4.191247714    12.945970408   -10.683065809
 C        2.171805823    10.657585221   -10.200282143
 C       -3.242561501    18.244585714     1.223223840
 C       -0.617313992    19.821035521     1.006724466
 C       -2.812077391    13.492798454    -0.801889752
 C       -5.560230925    12.635119536     0.354072061
 C       -0.649504906    -0.923198760    -1.532899992
 C       -0.635113853    -0.900407874     1.551593001
 H        1.052281087     2.578494224     1.059557245
 H        0.185698571     4.845240652     1.059468044
 H       -3.348985620     3.540390311    -1.020117704
 H       -2.520377895     1.254507185    -1.043120684
 H       -3.168862509     5.809082700    -0.481562944
 H       -0.606501991     6.694570348     1.012814640
 H       -3.958111967     7.683535298    -0.524050691
 H       -4.803078528     9.960459297    -0.516837514
 H       -1.231523980    11.238993504     1.619714548
 H       -0.412188452     8.947065216     1.561519539
 H       -3.050691103    14.437850196     2.086415599
 H       -3.224010810    11.629612637     3.442642353
 H       -2.776269020    11.519504413     5.703383028
 H       -2.186784807    12.539019172     7.850273267
 H       -1.857094340    16.387453714     5.900544213
 H       -2.611420944    15.386007654     3.814498313
 H       -0.799668773    16.826968098     9.258130724
 H       -1.872394394    17.159222961     7.887641956
 H       -0.186477972    16.617921665     7.588109797
 H        3.534813968    12.542231311     7.857281460
 H        3.510311515    12.942114759     6.123601295
 H        2.069377437    12.209112453     6.889812337
 H        2.649097196    16.858349935     7.066916958
 H        1.637122759    18.241755241     5.278702811
 H       -0.067509872    14.696698799     3.512679809
 H        0.995614577    13.319719028     5.243586034
 H        0.374406949    18.493931642     3.385815200
 H       -0.895836260    15.933403484     2.122928559
 H        0.947753471    16.532215837    -0.084052210
 H        1.470499590    15.575062297    -2.257324727
 H       -2.258316383    17.025988633    -3.843934610
 H       -2.819004136    18.011398706    -1.690994154
 H       -0.852775220    15.835114105    -5.273241789
 H        1.816022699    14.802144329    -4.091068692
 H       -0.503263345    15.067312175    -7.110983913
 H        0.018010378    14.106177012    -9.278649445
 H        3.786515302    12.633741052    -7.675748964
 H        3.218731354    13.604371367    -5.519379339
 H       -0.524891823    14.844787210    10.102895820
 H       -1.547753836    13.485141855     9.604794456
 H        0.578351825    12.584411686     9.185150285
 H        0.169527056    13.194339088     7.588139850
 H        1.443322794    15.444892922     8.800569483
 H        2.354556943    14.064777555     9.453374180
 H        2.264442788    -1.028548326    -0.054523650
 H        2.277683224     0.468912292     0.910271825
 H        2.257978718     0.555954278    -0.871203382
 H        1.554460508    12.785118950   -12.634242640
 H        1.337121064    14.301242729   -11.724093936
 H        0.207808690    12.941018758   -11.478705197
 H        4.793658747    12.476625604    -9.851587435
 C        4.681111102    12.348345908   -12.014063126
 C        4.478390154    14.458370454   -10.676288789
 H        2.391410446    10.274372633   -11.238527810
 C        3.154227406     9.983912304    -9.225631291
 C        0.739328738    10.233526454    -9.827652832
 H       -3.596993903    18.990912768     0.454054470
 C       -4.025396659    16.939261441     1.009609721
 C       -3.582784431    18.800100570     2.618513186
 H       -0.780653423    20.193321316     2.058913477
 C        0.896410010    19.821378192     0.726131790
 C       -1.296038951    20.809385755     0.041874645
 H       -3.135307202    14.569246838    -0.693102492
 C       -1.280356472    13.441864125    -0.666843919
 C       -3.204777066    13.019780258    -2.210920765
 H       -5.773642842    12.126905095    -0.630701771
 C       -6.332828619    11.888390383     1.456395242
 C       -6.090212765    14.077763368     0.264644795
 H       -1.775295470    -0.908463600    -1.450540074
 C       -0.262610470    -0.226983270    -2.850326082
 C       -0.204084573    -2.395364923    -1.596410365
 H       -0.176864710    -1.930722891     1.520024302
 C       -0.187559714    -0.218661677     2.857530646
 C       -2.166172000    -1.058134947     1.575926965
 H        4.574373480    11.257093739   -12.066166626
 H        5.752270671    12.558704467   -12.147949697
 H        4.173375739    12.776274411   -12.888561894
 H        4.202918610    14.948187939    -9.731291640
 H        3.969513262    14.995565075   -11.487559659
 H        5.554184150    14.638669001   -10.813096744
 H        4.207708926    10.167988126    -9.471042635
 H        3.019999030     8.892531575    -9.252420840
 H        2.992642901    10.285255398    -8.180862490
 H       -0.021888706    10.605823823   -10.525054928
 H        0.448846300    10.552642818    -8.816169783
 H        0.656113971     9.137160346    -9.839207896
 H       -3.829170336    16.462869866     0.039078033
 H       -5.106447346    17.137775726     1.039898054
 H       -3.829984129    16.196077139     1.796392779
 H       -3.140911997    19.784356178     2.817601487
 H       -3.278607110    18.127446952     3.433941295
 H       -4.670242751    18.929418363     2.716854002
 H        1.469371147    19.164439266     1.394541469
 H        1.305456335    20.832461371     0.862246614
 H        1.136966967    19.529644350    -0.306688324
 H       -2.362665631    20.960456455     0.250618476
 H       -1.198102162    20.515440210    -1.012862750
 H       -0.825630862    21.800103882     0.126411328
 H       -0.912085502    13.837031569     0.289561708
 H       -0.818438045    14.063873673    -1.450481669
 H       -0.869688604    12.431721277    -0.798266119
 H       -4.277138875    13.113460800    -2.420252023
 H       -2.911995170    11.979663881    -2.411436636
 H       -2.687933712    13.631140981    -2.966665581
 H       -6.052863541    10.829890630     1.547205183
 H       -7.410140606    11.903860911     1.240613727
 H       -6.210086773    12.347224800     2.448403780
 H       -5.642408555    14.654821101    -0.555003255
 H       -5.944548964    14.643832434     1.195400757
 H       -7.173334354    14.068827455     0.077274776
 H       -0.588686421     0.821690666    -2.900888132
 H       -0.736607450    -0.737742416    -3.700504141
 H        0.818428919    -0.245371576    -3.042928508
 H       -0.513628042    -2.981339749    -0.721380544
 H        0.882084987    -2.510306823    -1.708901608
 H       -0.656527594    -2.886601368    -2.470145449
 H        0.902592941    -0.141795977     2.957905109
 H       -0.535241593    -0.799881549     3.723681705
 H       -0.606593450     0.790904185     2.977199930
 H       -2.558862227    -1.627216287     0.723765377
 H       -2.694607218    -0.094579974     1.608559400
 H       -2.473520507    -1.606568493     2.478168389

