187   

Si        0.000000000     0.000000000     0.000000000
 C        1.865197020     0.000000000     0.000000000
 C       -0.677997131     1.711366521     0.000000000
 C        0.123229994     2.805159078     0.342721003
 C       -0.401179062     4.097636039     0.339288503
 C       -1.737247885     4.325743284    -0.000138351
 C       -2.540042660     3.228241885    -0.338849177
 C       -2.019274989     1.937284363    -0.337761029
 C       -2.329191939     5.659274689    -0.017542501
 C       -1.672636459     6.792501694     0.283620014
 C       -2.265769090     8.125611346     0.265846508
 C       -3.602422015     8.350881720    -0.074045584
 C       -4.128887356     9.642288152    -0.078153866
 C       -3.331078731    10.735814442     0.272339685
 C       -1.990908421    10.513074568     0.615873449
 C       -1.465451236     9.224017590     0.607485531
Si       -3.997916930    12.448335126     0.275801362
 C       -3.248360639    13.478505405     1.586358827
 C       -2.804949676    12.991896681     2.753239017
 C       -2.203070103    13.802692817     3.811455560
 C       -1.779883258    13.166783910     4.986387800
 C       -1.202958173    13.882500902     6.022689929
 C       -1.081924006    15.287001345     5.941471216
 C       -1.507691113    15.925492473     4.759982885
 C       -2.031144251    15.185853741     3.708360872
 N       -0.495555147    16.006748645     6.996566412
 C       -0.612307571    15.439873270     8.354367608
 C       -0.633144307    17.471785610     6.954644103
 C       -2.037971369    15.065533656     8.800662895
 C       -2.833756803    16.251725214     9.379152673
 N       -4.238949034    16.335175574     8.917578634
 C       -4.325362466    16.733180399     7.544033942
 C       -4.141526408    18.102788125     7.287227827
 C       -4.208449907    18.576197341     5.986569763
 C       -4.458568782    17.704369659     4.916016850
 C       -4.656979908    16.347495137     5.182545797
 C       -4.608578507    15.862299015     6.486397721
 C       -5.027621773    15.138883034     9.261436764
 C       -4.517028620    18.267302091     3.565442732
 C       -4.746629863    17.557499274     2.452814492
Si       -4.808128405    18.319015741     0.789029478
 C       -3.718212065    19.796708708     0.691729099
 C       -2.513608187    19.811076664     1.405745339
 C       -1.670039886    20.918482451     1.348855587
 C       -2.001900132    22.029546320     0.567839047
 C       -3.203270505    22.009177589    -0.152122717
 C       -4.051899097    20.905780207    -0.092984359
 C       -1.148785374    23.209988493     0.478878394
 C        0.024554189    23.354197118     1.118047189
 C        0.879806987    24.533226852     1.031113580
 C        0.550413144    25.648522748     0.256709784
 C        1.398417344    26.754741012     0.202850604
 C        2.592872811    26.771831430     0.929921610
 C        2.925002530    25.654359939     1.707967596
 C        2.080052932    24.549148747     1.754585580
Si        3.722239737    28.224437675     0.868950689
 C        2.887531144    29.710578673     0.111513772
 C        4.284715951    28.620203849     2.643969701
 C        5.257353564    27.788741207    -0.168675376
 C       -4.169984754    17.039685602    -0.466829661
 C       -6.610965636    18.753982651     0.381478497
 C       -3.614135839    13.250550653    -1.406360771
 C       -5.883264933    12.443984159     0.533688505
 C       -0.653578217    -0.906414185    -1.541385090
 C       -0.618309021    -0.920543804     1.546920759
 H        1.175477984     2.689495298     0.617013733
 H        0.244815018     4.932287408     0.605726383
 H       -3.583504877     3.383798972    -0.606320692
 H       -2.693702630     1.121014649    -0.611307567
 H       -3.385001935     5.687107313    -0.302483042
 H       -0.616629710     6.765453585     0.568334775
 H       -4.245902745     7.515354784    -0.342832396
 H       -5.179410703     9.755823631    -0.358656608
 H       -1.320855278    11.332735893     0.897999380
 H       -0.421175597     9.070376940     0.873528653
 H       -3.198992157    14.554121495     1.356584271
 H       -2.852781509    11.922800603     3.005991630
 H       -1.891836364    12.086183747     5.085948177
 H       -0.841859158    13.350334809     6.897222341
 H       -1.436139014    17.004191211     4.653995913
 H       -2.336619073    15.708028161     2.799050335
 H       -0.155411293    17.925792831     7.837283784
 H       -1.683782918    17.810998743     6.910567965
 H       -0.099013457    17.858753590     6.067096618
 H       -5.042156517    15.035316762    10.360230091
 H       -4.655951586    14.197474411     8.829743861
 H       -6.070717160    15.289111543     8.931255402
 H       -3.963866093    18.782491791     8.118675319
 H       -4.071284884    19.641094453     5.796873673
 H       -4.849034657    15.649619284     4.365326514
 H       -4.767179076    14.802716100     6.668219654
 H       -4.342332176    19.353568917     3.549481669
 H       -4.930174559    16.472849677     2.487184822
 H       -2.197722483    18.967075254     2.029567446
 H       -0.742030547    20.908973817     1.917891104
 H       -3.480194405    22.863539717    -0.766852996
 H       -4.975607214    20.947559429    -0.676337041
 H       -1.533650486    24.005933842    -0.165401302
 H        0.409448297    22.557274977     1.761124889
 H       -0.375604464    25.662094582    -0.315187035
 H        1.087747516    27.597035218    -0.421548373
 H        3.845405012    25.611316746     2.297303289
 H        2.356507190    23.689584063     2.362179693
 H        0.036057298    14.530308877     8.381684551
 H       -0.154961159    16.149559410     9.078407564
 H       -2.590788469    14.632849950     7.939754787
 H       -1.984963586    14.251198992     9.545688041
 H       -2.856871489    16.196186210    10.490012312
 H       -2.337789955    17.215743122     9.129613750
 H        2.263318524    -1.029379246    -0.046616435
 H        2.275593391     0.474160844     0.908677625
 H        2.260301464     0.548535034    -0.874489038
 H        3.555215530    30.590672648     0.122190794
 H        1.974141266    29.980630754     0.672135989
 H        2.597139919    29.526818593    -0.937739682
 H        4.821427778    27.697575564     3.011510601
 C        5.267622435    29.801504098     2.727625915
 C        3.100662165    28.884417541     3.591690156
 H        5.875126546    28.732114293    -0.210298169
 C        6.125196636    26.678250270     0.449900196
 C        4.899858120    27.388696107    -1.611867581
 H       -4.714562513    16.080028608    -0.228675982
 C       -4.472911549    17.407354961    -1.929191211
 C       -2.657995260    16.792543466    -0.321420613
 H       -6.604553130    19.173080957    -0.666047899
 C       -7.545823139    17.530985040     0.397925825
 C       -7.180357216    19.830249854     1.322883050
 H       -3.978977773    14.317226212    -1.336574941
 C       -2.104447509    13.278819837    -1.704622720
 C       -4.343050611    12.576457306    -2.581025530
 H       -6.312481707    11.824784423    -0.305409294
 C       -6.286269740    11.790085743     1.867568475
 C       -6.511818200    13.847354220     0.457338570
 H       -1.778179385    -0.912901505    -1.443327220
 C       -0.299434699    -0.175849514    -2.849271201
 C       -0.182315342    -2.368275333    -1.639973179
 H       -0.131671297    -1.937934349     1.512297919
 C       -0.190135211    -0.231016492     2.855294625
 C       -2.143983142    -1.122945907     1.572253521
 H        6.176771544    29.653770052     2.130509071
 H        5.601598824    29.938895961     3.766451690
 H        4.817859379    30.755425198     2.421874457
 H        2.380767638    28.054264259     3.628244069
 H        2.542211143    29.795130135     3.337749044
 H        3.463926357    29.021087771     4.620240998
 H        6.498914327    26.924236838     1.451877392
 H        7.014109597    26.505296906    -0.174337862
 H        5.603384692    25.712804018     0.511094344
 H        4.348692818    28.165925680    -2.156618769
 H        4.309016570    26.462856709    -1.664448099
 H        5.816657397    27.201112438    -2.189099389
 H       -5.544603623    17.510179219    -2.140979264
 H       -4.102467763    16.618151270    -2.600157258
 H       -3.978735181    18.334986496    -2.249751552
 H       -2.355764604    16.480106483     0.687454138
 H       -2.054875731    17.673020993    -0.586749971
 H       -2.338206979    15.990015285    -1.003201677
 H       -7.245387481    16.742244671    -0.304211150
 H       -8.562077036    17.831301846     0.105038360
 H       -7.637399456    17.077376774     1.395107071
 H       -6.599421305    20.762818780     1.324315449
 H       -7.257452450    19.488619796     2.365539415
 H       -8.198803180    20.103515170     1.012876035
 H       -1.513086790    13.779948464    -0.925512358
 H       -1.913791788    13.824495545    -2.639481883
 H       -1.679478291    12.274210745    -1.845197680
 H       -5.436282821    12.609595745    -2.491679206
 H       -4.050572563    11.526115643    -2.721749450
 H       -4.095976692    13.089566228    -3.521760765
 H       -5.927963218    10.756888650     1.973081798
 H       -7.380900738    11.743646473     1.951199923
 H       -5.931654727    12.353020651     2.743727533
 H       -6.338164954    14.348579505    -0.503697553
 H       -6.162673805    14.515482937     1.257881247
 H       -7.603019627    13.776198533     0.571981306
 H       -0.655789845     0.863967784    -2.875544348
 H       -0.769265744    -0.682923189    -3.703987815
 H        0.779267500    -0.160568128    -3.054094860
 H       -0.466003884    -2.976061449    -0.771113622
 H        0.903800687    -2.460340805    -1.772602726
 H       -0.640098562    -2.851659820    -2.515321394
 H        0.897434085    -0.122591978     2.955811330
 H       -0.520467944    -0.824843910     3.719632252
 H       -0.637187412     0.765968523     2.978598825
 H       -2.521644274    -1.694852237     0.715287612
 H       -2.699769010    -0.175670617     1.617573969
 H       -2.432773944    -1.689621300     2.469476894

