187   

Si        0.000000000     0.000000000     0.000000000
 C        1.865421256     0.000000000     0.000000000
 C       -0.674659589     1.712831373     0.000000000
 C        0.144374650     2.808796890     0.289708737
 C       -0.375043141     4.103105965     0.287483177
 C       -1.723918865     4.331326945     0.003074197
 C       -2.544307080     3.231954683    -0.283283036
 C       -2.028056144     1.938993042    -0.284829738
 C       -2.309248251     5.668059998    -0.010267574
 C       -1.631430027     6.800356819     0.243549279
 C       -2.211170593     8.139141011     0.231652418
 C       -3.558973331     8.375750835    -0.051768120
 C       -4.070183130     9.673332953    -0.051848441
 C       -3.244444973    10.762409509     0.244385004
 C       -1.892671906    10.528265250     0.529924016
 C       -1.383262920     9.232859608     0.518182840
Si       -3.890793416    12.484295295     0.251840526
 C       -3.032936041    13.525037467     1.487641919
 C       -2.515192262    13.054729779     2.630335874
 C       -1.827320957    13.880482166     3.624427472
 C       -1.329149717    13.263660832     4.783280666
 C       -0.670935995    13.997316570     5.754922718
 C       -0.519262098    15.392978508     5.610000412
 C       -1.013151156    16.012076448     4.450999173
 C       -1.640232118    15.254727212     3.466905680
 N        0.160815114    16.094872150     6.630794766
 C       -0.347612976    15.872896063     8.003894373
 C        0.501140776    17.499204934     6.352185917
 C       -1.870371065    15.706930458     8.136308857
 C       -2.651581087    16.937765675     7.643457224
 N       -4.077368767    16.660710994     7.397070511
 C       -4.866929563    16.286466126     8.497460229
 C       -4.527405998    16.710042603     9.800524709
 C       -5.307113640    16.340075185    10.884525486
 C       -6.477378210    15.587247345    10.714881219
 C       -6.831792096    15.198524274     9.419935931
 C       -6.052147824    15.543877209     8.324509685
 C       -4.309429727    15.932209510     6.136863111
 C       -7.262366874    15.224558628    11.895212657
 C       -8.395166012    14.509700533    11.857129812
Si       -9.372678918    14.058900646    13.334594111
 C       -9.216423534    15.315875734    14.668899971
 C       -9.068542747    16.667310775    14.335093293
 C       -8.948679663    17.634249987    15.331829682
 C       -8.986258926    17.276089610    16.682532800
 C       -9.142879042    15.924119777    17.014276624
 C       -9.258971330    14.954922016    16.020719194
 C       -8.864802349    18.253684730    17.759004264
 C       -8.710700058    19.576237607    17.577243951
 C       -8.589174498    20.554450983    18.653140309
 C       -8.622580287    20.198113124    20.003715071
 C       -8.502671854    21.166764526    21.000243690
 C       -8.338953697    22.514658993    20.665959667
 C       -8.304419832    22.874642717    19.311878729
 C       -8.430968785    21.906478116    18.319791160
Si       -8.179346315    23.804346336    21.969835902
 C       -7.843107715    23.049971571    23.642448761
 C       -6.761684615    24.977050772    21.480700857
 C       -9.792137643    24.810932089    22.063353767
 C      -11.202262192    13.931242625    12.829354883
 C       -8.792323442    12.357811497    13.959098574
 C       -3.622768459    13.247034960    -1.469597258
 C       -5.752707862    12.489062666     0.642398126
 C       -0.656431814    -0.901433182    -1.542863693
 C       -0.614331637    -0.923872178     1.546467236
 H        1.207060883     2.693456124     0.520712918
 H        0.285002287     4.938946605     0.512534168
 H       -3.597818178     3.387503500    -0.507760839
 H       -2.715923231     1.121102933    -0.517044765
 H       -3.376215629     5.698729940    -0.248799980
 H       -0.563937389     6.767279785     0.481697871
 H       -4.223222913     7.544005765    -0.278492140
 H       -5.130879356     9.795720211    -0.286982000
 H       -1.199710965    11.343400397     0.765412683
 H       -0.329611028     9.070698410     0.738309584
 H       -2.981117163    14.594094012     1.232677790
 H       -2.562454419    11.992223498     2.910174141
 H       -1.452007866    12.187660933     4.916776932
 H       -0.260182685    13.500430389     6.630904620
 H       -0.910644680    17.082711315     4.305781024
 H       -2.001397692    15.753905513     2.566753412
 H        1.207446837    17.854916812     7.123397975
 H       -0.361751357    18.182646443     6.327378545
 H        1.032589089    17.562286109     5.385299811
 H       -3.545272880    16.200644292     5.385577234
 H       -5.289439990    16.232796477     5.724605979
 H       -4.287380582    14.835831775     6.253200167
 H       -3.647315248    17.323347545     9.967216083
 H       -5.010166178    16.655995756    11.885670570
 H       -7.738962049    14.614352628     9.258544924
 H       -6.367283648    15.226354873     7.335641797
 H       -6.833229480    15.606558501    12.832863948
 H       -8.799807253    14.131299078    10.906577136
 H       -9.036982880    17.007425614    13.294046843
 H       -8.827517556    18.677688424    15.046503945
 H       -9.175416353    15.624198418    18.059766773
 H       -9.380027568    13.916520732    16.340551893
 H       -8.907870904    17.831803864    18.767327350
 H       -8.668099183    19.998056455    16.568679485
 H       -8.744315765    19.155191694    20.290465407
 H       -8.537449069    20.826902355    22.038976867
 H       -8.178494327    23.912638304    18.991192502
 H       -8.404030868    22.205624726    17.273644840
 H        0.153357250    14.947461103     8.379765705
 H        0.001318610    16.698942549     8.660888599
 H       -2.204002536    14.809134168     7.576675233
 H       -2.128122725    15.494401084     9.192480615
 H       -2.569525842    17.775330169     8.371274734
 H       -2.215923880    17.322063351     6.692247443
 H        2.263634651    -1.029330648    -0.047424141
 H        2.274993298     0.473023677     0.909697290
 H        2.261123119     0.549063288    -0.873764446
 H       -7.698688524    23.831091075    24.410090346
 H       -6.926637798    22.432647223    23.620952617
 H       -8.675625054    22.406095872    23.976022385
 H       -7.062764798    25.430101781    20.491519342
 C       -6.544484115    26.128094466    22.479031620
 C       -5.429031012    24.235174038    21.272468180
 H       -9.649702803    25.537277386    22.914981861
 C      -10.087365599    25.622338442    20.789205113
 C      -11.016440497    23.933822651    22.383608342
 H      -11.249000015    13.144577064    12.022180019
 C      -12.118525917    13.487779554    13.983109298
 C      -11.738222630    15.249825269    12.243299479
 H       -9.458627509    12.100180784    14.832149600
 C       -8.939204333    11.244312402    12.906575351
 C       -7.336167389    12.384187125    14.457241733
 H       -4.039674472    14.293885810    -1.416029197
 C       -2.131265545    13.344435019    -1.837332409
 C       -4.365078788    12.492299376    -2.585851619
 H       -6.244788509    11.882450353    -0.171682100
 C       -6.066971307    11.822749630     1.993922244
 C       -6.372354234    13.897830823     0.625230587
 H       -1.781239650    -0.899475190    -1.446689760
 C       -0.295326889    -0.171616321    -2.849398583
 C       -0.194175755    -2.365922940    -1.642006528
 H       -0.121419206    -1.938335865     1.511006692
 C       -0.190020729    -0.232195553     2.854996816
 C       -2.138600562    -1.135963074     1.573091329
 H       -7.438007809    26.747618153    22.629686692
 H       -5.761052196    26.804403149    22.107078749
 H       -6.207436230    25.781668142    23.465005771
 H       -5.492742788    23.430359669    20.526089022
 H       -5.032277957    23.796908981    22.197807987
 H       -4.662039174    24.932691027    20.906808966
 H       -9.295284155    26.337616081    20.534121525
 H      -11.003162911    26.215820534    20.926205783
 H      -10.264585980    24.986576320    19.910238687
 H      -10.921831327    23.379267498    23.326034943
 H      -11.239304803    23.205841201    21.590212306
 H      -11.913442283    24.561393126    22.485508101
 H      -11.857964196    12.503655352    14.392875382
 H      -13.156723822    13.407690077    13.629744132
 H      -12.134271277    14.204259553    14.816985133
 H      -11.167321354    15.605045417    11.374378374
 H      -11.762938182    16.065639683    12.980198557
 H      -12.773349224    15.116479650    11.898719604
 H       -9.970968072    11.106279218    12.559312040
 H       -8.628378661    10.280110036    13.334010377
 H       -8.306063578    11.405783600    12.022734594
 H       -7.160561331    13.117612490    15.256405931
 H       -6.614769856    12.593622224    13.653834157
 H       -7.060452860    11.404490105    14.871722766
 H       -1.539555281    13.921809133    -1.113968057
 H       -2.013935509    13.850957974    -2.805909749
 H       -1.653358277    12.360008391    -1.946634694
 H       -5.453017027    12.464163117    -2.444380388
 H       -4.016423308    11.456589157    -2.708013153
 H       -4.194574542    12.987511979    -3.552923222
 H       -5.708801844    10.786111656     2.063624850
 H       -7.153866646    11.783455917     2.152075382
 H       -5.649806124    12.373960707     2.849346565
 H       -6.256589958    14.413412850    -0.336650189
 H       -5.966452882    14.552777756     1.408951414
 H       -7.454692054    13.833951406     0.808996105
 H       -0.646091384     0.870070124    -2.875536921
 H       -0.766355650    -0.675394770    -3.705436676
 H        0.783815983    -0.162252088    -3.052073282
 H       -0.480240977    -2.972292792    -0.772912543
 H        0.891280460    -2.464277080    -1.775863601
 H       -0.655762699    -2.846576745    -2.516882992
 H        0.896740552    -0.115079167     2.954608989
 H       -0.514787584    -0.829396451     3.719145937
 H       -0.644633359     0.761177982     2.979689039
 H       -2.515576015    -1.699571648     0.710361179
 H       -2.699710342    -0.192684279     1.632020802
 H       -2.421195856    -1.715460206     2.464151595

