187   

Si        0.000000000     0.000000000     0.000000000
 C        1.865067877     0.000000000     0.000000000
 C       -0.695817646     1.703561046     0.000000000
 C        0.102510236     2.819681645    -0.267964929
 C       -0.446172822     4.102465898    -0.262681026
 C       -1.803625291     4.297476228     0.003531048
 C       -2.603323755     3.177195985     0.268295251
 C       -2.058455362     1.896716790     0.266494184
 C       -2.425569753     5.616782255     0.020972980
 C       -1.785409365     6.775462541    -0.210856493
 C       -2.423949373     8.087812637    -0.189366216
 C       -1.647478940     9.224527056    -0.447725080
 C       -2.218047323    10.495727378    -0.436897551
 C       -3.578763363    10.660110395    -0.154225831
 C       -4.356651856     9.525119655     0.105021144
 C       -3.785388155     8.254512383     0.081823932
Si       -4.374195447    12.319405340    -0.129018177
 C       -5.703182721    12.403225124     1.124364044
 C       -5.702724514    11.692032320     2.260121946
 C       -6.759765177    11.750476203     3.270167631
 C       -6.641772768    10.954660750     4.418431761
 C       -7.612960339    10.970932580     5.406233660
 C       -8.780666913    11.748543793     5.248673198
 C       -8.901840079    12.544354270     4.092358194
 C       -7.893459693    12.556966443     3.137863519
 N       -9.765228223    11.764165177     6.251629557
 C       -9.888642180    10.565278828     7.099906990
 C      -11.069736834    12.348362357     5.892574269
 C      -10.280524306     9.302426877     6.312347940
 C      -10.792219161     8.168555909     7.215871073
 N      -12.002009465     8.474426936     8.014797821
 C      -12.943117731     9.319608599     7.382707875
 C      -13.417943760     8.941194973     6.108968227
 C      -14.340041120     9.732757465     5.446290346
 C      -14.845257761    10.902522445     6.035317580
 C      -14.391003883    11.259386353     7.306357245
 C      -13.458521673    10.479366365     7.981988634
 C      -11.709898972     8.757455480     9.429410670
 C      -15.819072081    11.703433678     5.290139112
 C      -16.365443402    12.834525400     5.753868067
Si      -17.582771258    13.876502162     4.875109117
 C      -17.020100589    15.627233968     4.906813835
 C      -15.668444693    15.929058213     5.114249422
 C      -15.238578227    17.253515899     5.138910149
 C      -16.144036495    18.304918003     4.945615506
 C      -17.491333871    17.998885903     4.732049018
 C      -17.926491065    16.674610496     4.711583721
 C      -15.646058091    19.676223688     4.980182246
 C      -16.408354175    20.770479624     4.814651923
 C      -15.912735526    22.142468491     4.848801612
 C      -14.567436980    22.453667144     5.061853046
 C      -14.137623089    23.780467887     5.086638157
 C      -15.047869319    24.826383284     4.905317031
 C      -16.398118690    24.516836711     4.692395043
 C      -16.823012112    23.191634594     4.662369852
Si      -14.497029709    26.582990014     4.935202949
 C      -12.769549460    26.749599687     5.618818403
 C      -14.527003880    27.284423935     3.165937536
 C      -15.724691622    27.574337427     6.000117612
 C      -17.786860110    13.321560547     3.068014618
 C      -19.261519668    13.725731263     5.756547079
 C       -3.082656079    13.664936221     0.246816554
 C       -5.134341466    12.662657202    -1.838483257
 C       -0.604810857    -0.926543338    -1.549645254
 C       -0.653029663    -0.908051934     1.540939427
 H        1.170574506     2.728752774    -0.483603447
 H        0.197151621     4.955251392    -0.471368027
 H       -3.663421176     3.307199355     0.477790176
 H       -2.732055856     1.062187134     0.481471674
 H       -3.497115238     5.611087108     0.244343918
 H       -0.715356623     6.787574719    -0.434984414
 H       -0.586187082     9.117158417    -0.662480377
 H       -1.564015350    11.344842750    -0.652069737
 H       -5.426785836     9.593465909     0.330131327
 H       -4.412739964     7.387851000     0.282099451
 H       -6.515813134    13.106068501     0.889148849
 H       -4.896549426    10.990949396     2.521110754
 H       -5.762527413    10.321706111     4.547294149
 H       -7.467372834    10.373242854     6.300755230
 H       -9.777174087    13.167052892     3.937346033
 H       -8.004004875    13.197532308     2.261696179
 H      -11.794636091    12.211386058     6.714863072
 H      -11.512947077    11.908203924     4.983900391
 H      -10.948433146    13.436807383     5.745644254
 H      -11.146470678     7.906761970     9.852764367
 H      -12.657496307     8.819427642     9.994477825
 H      -11.132894727     9.679064323     9.602168122
 H      -13.057895889     8.021431921     5.653621412
 H      -14.687469343     9.433187515     4.456894108
 H      -14.770983073    12.162222307     7.787689601
 H      -13.127085177    10.790519101     8.967806335
 H      -16.059241389    11.285195703     4.304244105
 H      -16.108714744    13.221171556     6.754883951
 H      -14.915912751    15.148100475     5.265348307
 H      -14.185526610    17.471205511     5.307406349
 H      -18.215283892    18.797212448     4.579537508
 H      -18.992009854    16.496458670     4.542523168
 H      -14.570327714    19.768404607     5.156270835
 H      -17.484121814    20.677631278     4.638636901
 H      -13.839552882    21.658021712     5.210093566
 H      -13.072672532    23.961649081     5.256660786
 H      -17.154725786    25.292838123     4.545546988
 H      -17.875399660    22.970809054     4.494597760
 H       -8.928488889    10.410511777     7.640824730
 H      -10.645244971    10.786463456     7.887432807
 H      -11.048999363     9.562144962     5.556082307
 H       -9.414619782     8.941461331     5.723123548
 H      -11.050125361     7.285674981     6.581668459
 H       -9.979821058     7.831537722     7.895598191
 H        2.262299460    -1.029939315     0.041015023
 H        2.261524149     0.543823652     0.876705997
 H        2.274371517     0.478739178    -0.906861831
 H      -12.465409561    27.810001698     5.677549395
 H      -12.028510059    26.225515494     4.990151765
 H      -12.704988033    26.329052577     6.638814947
 H      -14.125959460    28.335938002     3.248302869
 C      -13.615042908    26.499791377     2.204996911
 C      -15.937865131    27.358960872     2.555405550
 H      -16.729123081    27.464691269     5.496670273
 C      -15.850803892    27.014665953     7.428636672
 C      -15.397992528    29.076309130     6.076733252
 H      -18.031252951    12.220507041     3.106986643
 C      -18.936383178    14.037800082     2.336936703
 C      -16.494559214    13.499545255     2.250152712
 H      -19.980048501    14.366095417     5.167209805
 C      -19.806974605    12.287166495     5.771110498
 C      -19.220321734    14.262578970     7.198406959
 H       -2.310810792    13.595582536    -0.572967015
 C       -3.667106807    15.088600012     0.229006191
 C       -2.374264275    13.433575333     1.593714172
 H       -5.602367519    13.687005207    -1.771476921
 C       -4.092594347    12.684976286    -2.970465537
 C       -6.241279330    11.654942311    -2.197297037
 H       -0.090416987    -1.930464946    -1.523108299
 C       -2.124235757    -1.170436273    -1.572040750
 C       -0.200533628    -0.216866858    -2.854896342
 H       -1.777504396    -0.915697995     1.441993053
 C       -0.179451981    -2.369023387     1.639764859
 C       -0.300857668    -0.176623354     2.848957359
 H      -12.565484555    26.471251983     2.524919694
 H      -13.620326970    26.970889908     1.211548334
 H      -13.945328719    25.461876773     2.054510248
 H      -16.634991936    27.971769144     3.140699700
 H      -16.394244000    26.369053612     2.414380175
 H      -15.890735202    27.818241298     1.557110396
 H      -16.134712692    25.952831771     7.455309350
 H      -16.634673302    27.555577461     7.977764970
 H      -14.929554513    27.125307614     8.015901697
 H      -15.359388990    29.563832568     5.094028029
 H      -14.449502668    29.282777783     6.590122696
 H      -16.177117371    29.600672011     6.649131705
 H      -19.917127903    13.875610827     2.801860878
 H      -19.019844744    13.659450835     1.307559761
 H      -18.779427273    15.122320750     2.250525639
 H      -15.625415697    12.984307446     2.681254675
 H      -16.217160868    14.555476913     2.117872958
 H      -16.627868320    13.088345810     1.239598059
 H      -19.944942183    11.863275667     4.768087925
 H      -20.795031011    12.264050078     6.252861992
 H      -19.171501649    11.593782639     6.340575875
 H      -18.876283959    15.304334267     7.266359770
 H      -18.586114180    13.659151863     7.862172547
 H      -20.228861041    14.244081623     7.635785272
 H       -4.121623897    15.361556762    -0.731745747
 H       -2.870096982    15.824063898     0.410689591
 H       -4.418666935    15.251481024     1.014418439
 H       -1.879275707    12.455269088     1.665450478
 H       -3.054334093    13.522220053     2.453714146
 H       -1.589137908    14.187995997     1.742528542
 H       -3.315286204    13.447340931    -2.832571156
 H       -4.582023043    12.915723278    -3.927756914
 H       -3.590902355    11.716618095    -3.109570363
 H       -7.056077407    11.621104749    -1.461196118
 H       -5.862101479    10.630161530    -2.320228331
 H       -6.703334853    11.927906944    -3.156532948
 H       -2.487214953    -1.742306735    -0.708789865
 H       -2.396907805    -1.755085702    -2.462821550
 H       -2.704886832    -0.238981431    -1.629162134
 H        0.882917924    -0.074737320    -2.957716619
 H       -0.677541806     0.767096768    -2.970935202
 H       -0.515183420    -0.815075176    -3.722026171
 H       -0.455734672    -2.975864048     0.767859624
 H       -0.641825326    -2.855242034     2.511109934
 H        0.906065278    -2.458638789     1.779204617
 H       -0.660114397     0.862147459     2.875272425
 H        0.777733743    -0.158738297     3.054033012
 H       -0.769783581    -0.685175661     3.703327818

