187   

Si        0.000000000     0.000000000     0.000000000
 C        1.865269646     0.000000000     0.000000000
 C       -0.685782257     1.708145958     0.000000000
 C        0.132306702     2.819216953    -0.226586281
 C       -0.403528058     4.107207621    -0.223228167
 C       -1.767461497     4.312914230    -0.001145482
 C       -2.586482514     3.197901989     0.222955162
 C       -2.054272919     1.911846333     0.224642170
 C       -2.373552020     5.639948149     0.011675169
 C       -1.707178508     6.790479287    -0.183764116
 C       -2.320117470     8.114750291    -0.169564589
 C       -1.510225391     9.236684498    -0.387889223
 C       -2.052700535    10.519664157    -0.383032066
 C       -3.419185999    10.711732858    -0.147403839
 C       -4.230184916     9.591856023     0.071194698
 C       -3.686280149     8.308777935     0.054423460
Si       -4.165784509    12.393125144    -0.134520140
 C       -5.584369770    12.504815261     1.013123998
 C       -5.710647977    11.779021697     2.132376741
 C       -6.848706168    11.872456120     3.047776496
 C       -6.868655874    11.059353767     4.190132835
 C       -7.922679178    11.109856862     5.087750241
 C       -9.034599787    11.943161750     4.839049477
 C       -9.017542080    12.755445540     3.689377840
 C       -7.929066258    12.730660476     2.827046162
 N      -10.099247777    11.985086678     5.759643881
 C      -10.420445245    10.726752088     6.460149831
 C      -11.303327011    12.726046903     5.343704709
 C      -10.782181249     9.575389607     5.504508706
 C      -11.630147947     8.480678448     6.172397880
 N      -12.950281909     8.909901956     6.688329184
 C      -13.622431251     9.883207561     5.917785589
 C      -13.775495015     9.646290802     4.534511417
 C      -14.427111550    10.570714205     3.737068006
 C      -14.979898320    11.738472672     4.286652515
 C      -14.851068823    11.955291960     5.659558191
 C      -14.191307954    11.040422266     6.473604572
 C      -12.979775852     9.084284094     8.149085372
 C      -15.657887488    12.680983820     3.395153977
 C      -16.223444506    13.826276159     3.799377760
Si      -17.068400389    14.997346209     2.676980501
 C      -17.828443544    14.137677191     1.239941856
 C      -18.355059377    12.849328028     1.403160230
 C      -18.934333054    12.182574701     0.327229934
 C      -19.013839388    12.788860074    -0.933648717
 C      -18.495417147    14.077033129    -1.091105631
 C      -17.910751587    14.746382921    -0.016295903
 C      -19.630149745    12.049028286    -2.029795083
 C      -19.766219224    12.510388365    -3.284596134
 C      -20.382948233    11.768899745    -4.379615737
 C      -20.900730945    10.480985646    -4.220196574
 C      -21.482152276     9.807890341    -5.294586632
 C      -21.563544378    10.412366996    -6.552916364
 C      -21.045349718    11.704441636    -6.715343341
 C      -20.460936934    12.371636319    -5.642401703
Si      -22.327768157     9.537702575    -7.981047326
 C      -23.257548356     8.015102349    -7.436227017
 C      -23.505103547    10.747849667    -8.860190366
 C      -20.969050924     9.016451569    -9.207961803
 C      -18.436257530    15.889926454     3.650885448
 C      -15.797966688    16.282755020     2.081875102
 C       -2.863440069    13.685587507     0.368970781
 C       -4.782948410    12.799057358    -1.887681140
 C       -0.603297692    -0.927470260    -1.549366824
 C       -0.658787440    -0.901754306     1.541491833
 H        1.206145961     2.720964976    -0.407981133
 H        0.255160506     4.955881599    -0.398144510
 H       -3.651658997     3.336224666     0.398522177
 H       -2.741681081     1.081296748     0.408652742
 H       -3.451858163     5.647175281     0.197577175
 H       -0.629552256     6.785769836    -0.370263994
 H       -0.444506006     9.107789138    -0.566063791
 H       -1.372515389    11.356098676    -0.564749045
 H       -5.306151300     9.681792171     0.257147801
 H       -4.339067622     7.454089358     0.222027141
 H       -6.346470771    13.244516569     0.724348033
 H       -4.959960430    11.041161048     2.449686055
 H       -6.033893316    10.385191950     4.386364292
 H       -7.887157453    10.498681247     5.984575750
 H       -9.849423345    13.414970164     3.462329851
 H       -7.934341370    13.383009956     1.952647455
 H      -12.070980972    12.678668217     6.135966887
 H      -11.761648099    12.342411094     4.416532470
 H      -11.045614569    13.791463853     5.208447258
 H      -12.601545695     8.163405877     8.627595672
 H      -14.026739097     9.204339818     8.482153021
 H      -12.389694035     9.937280647     8.519412636
 H      -13.383195572     8.729985530     4.099581876
 H      -14.524511997    10.379739747     2.667034228
 H      -15.276575507    12.852451204     6.111327699
 H      -14.110597035    11.244575351     7.536278290
 H      -15.667648209    12.351826129     2.345843779
 H      -16.194655735    14.138713784     4.853904896
 H      -18.325086718    12.328238884     2.366217786
 H      -19.331870673    11.179500636     0.471096772
 H      -18.545034383    14.570879406    -2.059683468
 H      -17.523693591    15.752090478    -0.201053594
 H      -19.992187852    11.051961694    -1.761671853
 H      -19.404620596    13.507134850    -3.553710390
 H      -20.853427190     9.989341143    -3.250204878
 H      -21.868934777     8.802101191    -5.108473883
 H      -21.081610361    12.226963581    -7.675487463
 H      -20.062743574    13.373933225    -5.788517058
 H       -9.554494030    10.448643162     7.101262524
 H      -11.260091042    10.933622061     7.161451852
 H      -11.314863771     9.982067865     4.620316404
 H       -9.858500123     9.124409768     5.091679762
 H      -11.830795093     7.671075033     5.428640258
 H      -11.052648427     8.005243600     6.994687964
 H        2.262671616    -1.030053736     0.038021109
 H        2.262491559     0.541033451     0.878005399
 H        2.274040607     0.480905848    -0.905991986
 H      -23.746787730     7.519612220    -8.293802361
 H      -24.047603743     8.272800025    -6.707625954
 H      -22.589386676     7.275057645    -6.961956992
 H      -22.863728742    11.613795345    -9.196687164
 C      -24.181027820    10.150150629   -10.106918496
 C      -24.589488091    11.303383713    -7.919245647
 H      -21.497873997     8.435884030   -10.018296058
 C      -20.243563215    10.202321407    -9.868459092
 C      -19.918570551     8.091271100    -8.566541134
 H      -17.921395145    16.408872205     4.510099987
 C      -19.170982683    16.955585203     2.819243301
 C      -19.469947407    14.909943833     4.234313969
 H      -16.367526440    17.010779796     1.435192329
 C      -15.152364237    17.074923264     3.232939862
 C      -14.685003905    15.649701712     1.227459598
 H       -2.042971997    13.620884322    -0.402496069
 C       -3.405845843    15.126004194     0.364466914
 C       -2.249596886    13.387746123     1.748715253
 H       -5.212631564    13.840743702    -1.833973157
 C       -3.660340604    12.798118743    -2.939749364
 C       -5.899831098    11.844524300    -2.346853013
 H       -0.090144149    -1.932064922    -1.520356204
 C       -2.122771955    -1.170410208    -1.575911933
 C       -0.194794355    -0.220540151    -2.854928605
 H       -1.783454201    -0.898900263     1.443506397
 C       -0.198003697    -2.366868692     1.640034761
 C       -0.298993300    -0.173353066     2.849144585
 H      -23.466705810     9.797021865   -10.861848021
 H      -24.797917206    10.914354527   -10.601898114
 H      -24.856673361     9.317520124    -9.870376910
 H      -24.178194721    11.798803322    -7.028012476
 H      -25.294083301    10.534880680    -7.574838510
 H      -25.190010334    12.061487478    -8.441925583
 H      -20.915149321    10.871638262   -10.420778913
 H      -19.510331577     9.832751258   -10.600252319
 H      -19.676722220    10.809938397    -9.149026404
 H      -20.345820780     7.174015520    -8.141387307
 H      -19.339841674     8.587189471    -7.773924177
 H      -19.189318778     7.767973821    -9.323205938
 H      -18.510878179    17.748563541     2.445258693
 H      -19.931912034    17.455580258     3.436082645
 H      -19.706956641    16.532184126     1.957544262
 H      -19.027901906    14.147570048     4.890104048
 H      -20.047071754    14.386203797     3.458460825
 H      -20.203227051    15.454993905     4.845625691
 H      -15.879056253    17.621038307     3.847772805
 H      -14.465081642    17.831865956     2.827937374
 H      -14.552402505    16.442975868     3.902709890
 H      -15.062691187    15.112871542     0.346124927
 H      -14.056316571    14.948732120     1.795972234
 H      -14.011336704    16.429958057     0.846346690
 H       -3.791204678    15.443825426    -0.612546051
 H       -2.601518691    15.830711682     0.620535249
 H       -4.200430453    15.285403393     1.107082476
 H       -1.787220512    12.393217025     1.816142679
 H       -2.980583715    13.467284914     2.566766717
 H       -1.455050573    14.112891425     1.973681041
 H       -2.866303313    13.526215137    -2.730721108
 H       -4.068409800    13.064022932    -3.925630986
 H       -3.187876562    11.812690898    -3.060563596
 H       -6.768338701    11.833282033    -1.674094509
 H       -5.554816066    10.806678199    -2.460478152
 H       -6.277161409    12.151689144    -3.332462834
 H       -2.489028896    -1.739588767    -0.712289778
 H       -2.392909169    -1.757321231    -2.466017530
 H       -2.702561485    -0.238773188    -1.637886645
 H        0.889193015    -0.080501756    -2.955250412
 H       -0.669594901     0.764113287    -2.973818380
 H       -0.508324338    -0.819637885    -3.721824900
 H       -0.481319651    -2.971444402     0.768802811
 H       -0.663329451    -2.848574852     2.512319990
 H        0.886856378    -2.466227229     1.777636883
 H       -0.648511540     0.868753142     2.875331933
 H        0.779770604    -0.165630665     3.053761738
 H       -0.772461380    -0.677192571     3.703816301

