187   

Si        0.000000000     0.000000000     0.000000000
 C        1.865259008     0.000000000     0.000000000
 C       -0.679343000     1.710995179     0.000000000
 C        0.134361725     2.813613023     0.278429655
 C       -0.394270245     4.104475412     0.274847580
 C       -1.746665170     4.321821453    -0.000430327
 C       -2.561698652     3.215517869    -0.275746115
 C       -2.036662307     1.926401941    -0.275414005
 C       -2.344176695     5.652842009    -0.015523593
 C       -1.678857460     6.794882790     0.227635631
 C       -2.280737448     8.124121802     0.211438937
 C       -1.471504878     9.234866752     0.483187002
 C       -2.002799822    10.522517007     0.478748891
 C       -3.356298510    10.730171584     0.188915638
 C       -4.166785223     9.621883362    -0.084022595
 C       -3.634472186     8.333919208    -0.067295117
Si       -4.090267343    12.416071297     0.174358763
 C       -5.398452765    12.567945303    -1.096123448
 C       -5.407130104    11.872675649    -2.241155751
 C       -6.447906157    11.985572569    -3.264884068
 C       -6.339528747    11.199080086    -4.422964185
 C       -7.295880594    11.267150834    -5.421876302
 C       -8.379895940    12.160388567    -5.304195884
 C       -8.493808942    12.945049942    -4.148217864
 C       -7.545740541    12.837958591    -3.135127317
 N       -9.327008490    12.181661446    -6.364127555
 C       -8.758212353    12.606861761    -7.663952982
 C      -10.604436120    12.852370522    -6.064202188
 C       -8.109754661    14.003090047    -7.654374766
 C       -6.583609443    13.926461998    -7.444011699
 N       -6.005392668    15.150341766    -6.861606655
 C       -6.212834130    16.346337874    -7.572006432
 C       -6.171008093    16.329783926    -8.983506407
 C       -6.372222074    17.494506351    -9.704635086
 C       -6.575939204    18.722742574    -9.058332164
 C       -6.586262718    18.742229501    -7.661346791
 C       -6.400491680    17.580562805    -6.922382235
 C       -6.139739563    15.206947990    -5.397051366
 C       -6.783626983    19.922511802    -9.870791852
 C       -6.987458679    21.146381745    -9.366105589
Si       -7.251171465    22.671961516   -10.336927262
 C       -6.128067584    23.999202748    -9.735738286
 C       -5.017944960    23.686031532    -8.944689256
 C       -4.167240706    24.692932010    -8.489503956
 C       -4.400367988    26.029953823    -8.822509448
 C       -5.510096665    26.340059888    -9.620186544
 C       -6.364264204    25.338079371   -10.072791338
 C       -3.537079948    27.115547542    -8.368828753
 C       -2.445234267    26.954319461    -7.602099521
 C       -1.580742554    28.038313344    -7.147394735
 C       -1.813278737    29.376553736    -7.474659460
 C       -0.960214320    30.381196739    -7.017788441
 C        0.149070673    30.067183597    -6.226388533
 C        0.384363954    28.725459301    -5.896575914
 C       -0.471696730    27.725721224    -6.349568017
Si        1.283854293    31.382033698    -5.616012269
 C        1.022388088    32.989523222    -6.525425827
 C        0.975760937    31.669051314    -3.759655685
 C        3.075579968    30.781052800    -5.844713552
 C       -6.930396272    22.369033581   -12.186970096
 C       -9.056284968    23.231229990   -10.111769501
 C       -4.856678189    12.770908141     1.877728027
 C       -2.753233617    13.721165622    -0.183264795
 C       -0.656146565    -0.902290876    -1.542542415
 C       -0.612391721    -0.924672596     1.546945275
 H        1.199483251     2.706350506     0.501467281
 H        0.261125800     4.946125757     0.491350456
 H       -3.618063855     3.362824055    -0.492729749
 H       -2.720759654     1.102770605    -0.498723282
 H       -3.413696292     5.670656751    -0.245934703
 H       -0.609883858     6.778522841     0.458657013
 H       -0.415124614     9.093345337     0.703267204
 H       -1.324083385    11.349381805     0.704699062
 H       -5.232647208     9.724662079    -0.314965091
 H       -4.286361020     7.488022138    -0.278242333
 H       -6.188712931    13.296412503    -0.860774624
 H       -4.623819284    11.145608771    -2.500476595
 H       -5.497012297    10.514763084    -4.533439402
 H       -7.223461501    10.623249401    -6.295999492
 H       -9.319335168    13.640287141    -4.028980612
 H       -7.663013375    13.443172133    -2.235315583
 H      -11.320646449    12.623155450    -6.873043191
 H      -10.533160174    13.946570622    -5.964071636
 H      -11.027944934    12.435338917    -5.133669845
 H       -5.910673792    14.215627564    -4.961654518
 H       -7.145473937    15.498355671    -5.055246433
 H       -5.395709807    15.914055689    -4.988996200
 H       -5.981892990    15.399602981    -9.511603109
 H       -6.356334675    17.455011617   -10.794133859
 H       -6.741342021    19.684232297    -7.132697869
 H       -6.417795533    17.640266294    -5.838837559
 H       -6.751192335    19.722662343   -10.949960410
 H       -7.021900057    21.312328094    -8.276442331
 H       -4.781349193    22.655877402    -8.658080246
 H       -3.312534386    24.425058224    -7.870965316
 H       -5.708930131    27.375091236    -9.890777779
 H       -7.215066369    25.639422311   -10.689874597
 H       -3.841022620    28.111916625    -8.702451584
 H       -2.141455258    25.957221961    -7.269530879
 H       -2.667536902    29.647164190    -8.092439600
 H       -1.193659702    31.409548631    -7.306989482
 H        1.235725660    28.420448202    -5.281499402
 H       -0.273318671    26.689552211    -6.081829147
 H       -8.023699295    11.833549192    -7.982376224
 H       -9.576001406    12.570845086    -8.418407657
 H       -8.328058002    14.534562102    -8.599396060
 H       -8.566408330    14.629904939    -6.864598572
 H       -6.321213875    13.071837580    -6.777570173
 H       -6.069485189    13.719247626    -8.409371472
 H        2.263040552    -1.029825685    -0.040518376
 H        2.274988035     0.479056214     0.906468309
 H        2.261289950     0.543101713    -0.877319370
 H        1.737010183    33.760162605    -6.185118161
 H        0.004610415    33.387776583    -6.369183416
 H        1.169886427    32.857487073    -7.612779687
 H        1.660628875    32.515567314    -3.463848100
 C       -0.472110370    32.099928573    -3.461653743
 C        1.317683151    30.450888296    -2.883134009
 H        3.168213858    29.842091755    -5.224811423
 C        3.391620224    30.413200561    -7.305740612
 C        4.128967447    31.783629859    -5.340767794
 H       -7.564653790    21.478947607   -12.468231295
 C       -7.344594971    23.548616962   -13.084740683
 C       -5.458628964    22.021807155   -12.476970572
 H       -9.177689699    24.153784289   -10.749907758
 C      -10.075355757    22.182645394   -10.590864785
 C       -9.376893126    23.615732684    -8.656348775
 H       -5.280316829    13.814880959     1.818983371
 C       -6.008520576    11.805840298     2.211144686
 C       -3.827576362    12.735799488     3.020862627
 H       -1.989684551    13.621489057     0.641276097
 C       -2.044488368    13.476871234    -1.527571397
 C       -3.291822143    15.162917205    -0.159698395
 H       -1.780970087    -0.901081232    -1.446535037
 C       -0.294885874    -0.173615155    -2.849598766
 C       -0.193594288    -2.366876592    -1.640273089
 H       -0.114913035    -1.936940134     1.513201954
 C       -0.191810005    -0.229368027     2.854829367
 C       -2.135651678    -1.143446960     1.573167787
 H       -0.773020931    33.014162152    -3.989125367
 H       -0.589007932    32.311802959    -2.389151731
 H       -1.207911186    31.319203124    -3.702675986
 H        2.364486163    30.132934857    -2.967945352
 H        0.681665936    29.580020551    -3.095868720
 H        1.156770053    30.694614320    -1.822788152
 H        2.710029747    29.656256173    -7.719711740
 H        4.402630159    29.987461940    -7.377309088
 H        3.372528198    31.279185341    -7.980560614
 H        4.009460742    32.044803694    -4.281380158
 H        4.140149922    32.718476607    -5.916683558
 H        5.135287958    31.350889095    -5.438643095
 H       -8.409216107    23.802884937   -13.007445528
 H       -7.166215140    23.297012616   -14.140400480
 H       -6.764281796    24.460889213   -12.887371489
 H       -5.088970437    21.159134341   -11.905627804
 H       -4.776475051    22.861357275   -12.278840942
 H       -5.332543377    21.766747416   -13.538401862
 H       -9.965422243    21.921798772   -11.651305872
 H      -11.097570432    22.569598738   -10.473577859
 H      -10.031876732    21.248550626   -10.012514636
 H       -8.713461500    24.395446430    -8.255993004
 H       -9.336666329    22.759877170    -7.968739479
 H      -10.397711771    24.017811858    -8.589052726
 H       -6.816245930    11.815356697     1.466862406
 H       -6.469211176    12.085593948     3.169325866
 H       -5.673912750    10.764428097     2.324946039
 H       -3.016695005    13.465564036     2.900761792
 H       -3.369282294    11.745190898     3.154311911
 H       -4.317616324    12.976522039     3.975571752
 H       -1.583241893    12.482540518    -1.604946480
 H       -1.231310045    14.203902598    -1.663419445
 H       -2.713989306    13.597786217    -2.391933892
 H       -3.747491740    15.443061602     0.798460022
 H       -4.027985369    15.357304470    -0.952212418
 H       -2.468553122    15.873213493    -0.325215959
 H       -0.644454739     0.868437081    -2.876252126
 H       -0.766926501    -0.677397753    -3.705097523
 H        0.784167897    -0.165662559    -3.052769470
 H       -0.481040631    -2.972680372    -0.771217627
 H        0.892006685    -2.465443606    -1.772528450
 H       -0.654013404    -2.848000130    -2.515506138
 H        0.894357298    -0.107251328     2.954896958
 H       -0.514401776    -0.826961907     3.719525194
 H       -0.650921300     0.762125871     2.978049857
 H       -2.510918752    -1.704836720     0.708268683
 H       -2.700613434    -0.202756009     1.636647534
 H       -2.415321450    -1.728049127     2.461837798

