187   

Si        0.000000000     0.000000000     0.000000000
 C        1.865236120     0.000000000     0.000000000
 C       -0.676466713     1.712106191     0.000000000
 C        0.116788122     2.798980128     0.381471080
 C       -0.403780097     4.092908336     0.378561132
 C       -1.728228399     4.329429845     0.001051284
 C       -2.523187027     3.238720359    -0.375925899
 C       -2.006250207     1.946089685    -0.375023380
 C       -2.315422072     5.665105665    -0.017233466
 C       -1.664732468     6.791968185     0.318801568
 C       -2.251995266     8.127605241     0.300490925
 C       -3.576720941     8.363019755    -0.077238069
 C       -4.097752794     9.656548032    -0.080338639
 C       -3.307331941    10.742090538     0.310491483
 C       -1.979317841    10.508841192     0.692132465
 C       -1.458416668     9.217841209     0.681469852
Si       -3.969882252    12.458348895     0.315593291
 C       -3.230852914    13.474210372     1.643278856
 C       -2.800549060    12.985787532     2.814756042
 C       -2.208919067    13.798903833     3.877683403
 C       -1.795777736    13.169937277     5.061476231
 C       -1.230014791    13.892925317     6.098066532
 C       -1.100247760    15.296911143     6.002896009
 C       -1.515724093    15.929258272     4.814711840
 C       -2.038886052    15.181574316     3.768087394
 N       -0.525365720    16.011157418     7.061678359
 C       -0.792176328    15.546995573     8.432484370
 C       -0.411979714    17.468058017     6.919520433
 C       -2.273913119    15.310460441     8.779876407
 C       -3.085744446    16.592802215     9.033206394
 N       -2.721782297    17.374990533    10.232017565
 C       -1.676786952    18.314325381    10.040770172
 C       -1.907967549    19.355429799     9.118539228
 C       -0.929784652    20.307041743     8.883655372
 C        0.288908204    20.275929567     9.579748767
 C        0.500311335    19.259730766    10.514039190
 C       -0.470988758    18.293806001    10.756630938
 C       -2.652673583    16.572538627    11.462415527
 C        1.287429655    21.307498540     9.291084379
 C        2.484605106    21.384574068     9.887417150
Si        3.727516127    22.676486959     9.521709644
 C        2.941553887    24.255573362     9.001527376
 C        1.701455087    24.623344965     9.536719800
 C        1.090633965    25.816360461     9.154284280
 C        1.708901591    26.674226626     8.239968299
 C        2.953911192    26.308267303     7.712293690
 C        3.565239305    25.114817276     8.089252255
 C        1.106557663    27.932321067     7.811401921
 C       -0.079207340    28.397090178     8.240444175
 C       -0.683341295    29.654684963     7.813285391
 C       -0.070418072    30.512826765     6.896684590
 C       -0.684348932    31.706063999     6.516211866
 C       -1.931050101    32.063111544     7.039457969
 C       -2.548724660    31.203099122     7.957649695
 C       -1.930722262    30.015917139     8.340241360
Si       -2.754517316    33.634422553     6.547432085
 C       -1.944248095    34.393626934     5.048567023
 C       -4.586028563    33.261653061     6.186548657
 C       -2.662700092    34.875020324     7.988208474
 C        4.752767936    22.988823018    11.092463407
 C        4.880442705    22.032429088     8.152387499
 C       -3.563902188    13.270458152    -1.356490261
 C       -5.859329846    12.434398670     0.538916046
 C       -0.651963472    -0.909997000    -1.539982765
 C       -0.622154425    -0.917454836     1.547116407
 H        1.159871767     2.676742568     0.686157328
 H        0.235811477     4.922090820     0.675733024
 H       -3.557514950     3.400785193    -0.673187104
 H       -2.674281065     1.135320942    -0.678737397
 H       -3.361779382     5.700264238    -0.334162243
 H       -0.618112111     6.756822016     0.635467877
 H       -4.214572157     7.533915666    -0.377112231
 H       -5.138220011     9.778414793    -0.393166202
 H       -1.315043049    11.321739116     1.005646871
 H       -0.423337409     9.056429948     0.976940754
 H       -3.174637416    14.549845162     1.418462051
 H       -2.853777759    11.916993611     3.067305408
 H       -1.908145786    12.089724598     5.164603248
 H       -0.880838566    13.373269549     6.985137339
 H       -1.430633464    17.004744980     4.699940761
 H       -2.337639388    15.693364183     2.852080215
 H        0.117598442    17.894352355     7.792094067
 H       -1.383121811    17.981642738     6.829924706
 H        0.202421429    17.700603183     6.030245136
 H       -3.594832673    16.007277837    11.572314387
 H       -2.577988243    17.251188103    12.331228048
 H       -1.812859568    15.861379283    11.498554099
 H       -2.864493162    19.411228392     8.602280503
 H       -1.117996858    21.101879527     8.160375751
 H        1.437725029    19.217351593    11.070089363
 H       -0.277049816    17.519219514    11.492272668
 H        0.954571986    22.030276988     8.532194984
 H        2.799100992    20.643824025    10.638074604
 H        1.172346807    23.994799797    10.261221598
 H        0.122829911    26.076678834     9.579339391
 H        3.452517421    26.962327022     6.999542275
 H        4.536732809    24.882942097     7.644559424
 H        1.699669882    28.501492206     7.089777323
 H       -0.671823204    27.827341081     8.962477575
 H        0.897804584    30.255858899     6.471024160
 H       -0.155261021    32.337190421     5.796770631
 H       -3.523598345    31.429603652     8.398775315
 H       -2.425425978    29.361697181     9.055694749
 H       -0.225055050    14.595037953     8.573972852
 H       -0.342810246    16.271262979     9.150025863
 H       -2.763220696    14.746590849     7.957095608
 H       -2.334572882    14.643778201     9.660269852
 H       -3.029925659    17.250470593     8.137048787
 H       -4.163356327    16.323351179     9.150409383
 H        2.263269625    -1.029567132    -0.042584364
 H        2.276097221     0.477895292     0.906442656
 H        2.259876265     0.545184158    -0.876818495
 H       -2.471984378    35.311360400     4.732920469
 H       -1.957325444    33.693242397     4.193781103
 H       -0.892585031    34.666144201     5.245447434
 H       -5.014379925    32.855119073     7.148660382
 C       -5.401315747    34.507698294     5.797680237
 C       -4.765325400    32.185716506     5.100282455
 H       -3.130117136    35.826400939     7.601378878
 C       -3.448545545    34.431452355     9.235084889
 C       -1.214028375    35.189624182     8.404333760
 H        5.222415131    21.999047391    11.361854649
 C        5.881661430    24.012798761    10.882353573
 C        3.879634539    23.441976208    12.276387578
 H        5.662199596    22.831357879     7.999175656
 C        5.603270407    20.727852640     8.532350801
 C        4.140715371    21.822171100     6.819039078
 H       -3.993184130    14.312594572    -1.309699376
 C       -2.047491314    13.388212812    -1.593260952
 C       -4.201962899    12.543188148    -2.552724024
 H       -6.270753498    11.847643717    -0.332308451
 C       -6.285028712    11.726631539     1.837830026
 C       -6.491111885    13.837651219     0.505291845
 H       -1.776623830    -0.917130501    -1.442926477
 C       -0.296870773    -0.181963283    -2.849093235
 C       -0.179508841    -2.371712553    -1.635202555
 H       -0.145423792    -1.939376711     1.510008454
 C       -0.184870297    -0.233893952     2.855650860
 C       -2.149780478    -1.104435756     1.574392971
 H       -5.378730931    35.297568003     6.559616420
 H       -6.459403707    34.237809956     5.666740496
 H       -5.078420669    34.951067865     4.846383392
 H       -4.254121668    31.241371304     5.336292506
 H       -4.417269341    32.511772647     4.111185686
 H       -5.830385419    31.937931126     4.987104653
 H       -4.516821725    34.270595535     9.042685250
 H       -3.391099707    35.208940990    10.010975892
 H       -3.045275430    33.515948334     9.690484251
 H       -0.602626542    35.592391689     7.586613512
 H       -0.687963278    34.315091607     8.813649668
 H       -1.206687066    35.951516447     9.197045408
 H        6.603893428    23.713920398    10.111984981
 H        6.457325235    24.134164913    11.811558116
 H        5.508821247    25.013797414    10.621463913
 H        3.081735341    22.730359913    12.528495405
 H        3.409720413    24.422243862    12.110139317
 H        4.495800898    23.547355721    13.180707454
 H        6.218693666    20.817244884     9.436560475
 H        6.287788143    20.429579870     7.724864495
 H        4.914464921    19.883637295     8.676393970
 H        3.641872897    22.728244438     6.448025478
 H        3.383332534    21.026445635     6.871645915
 H        4.851113412    21.520250053     6.036511388
 H       -1.524900951    13.947631586    -0.805132991
 H       -1.852765029    13.924077996    -2.532955196
 H       -1.553393822    12.410589535    -1.689528357
 H       -5.297588856    12.503742068    -2.504756438
 H       -3.834867370    11.513828207    -2.673483989
 H       -3.954583646    13.067141486    -3.487336853
 H       -5.921964579    10.692074039     1.911049030
 H       -7.380996623    11.673640115     1.897894821
 H       -5.951475254    12.257325238     2.741540465
 H       -6.298506395    14.380013932    -0.429081247
 H       -6.160555201    14.474652358     1.337760201
 H       -7.584208114    13.759568769     0.594353991
 H       -0.651486532     0.858395391    -2.877143919
 H       -0.767374822    -0.689803697    -3.702965062
 H        0.781897633    -0.168679794    -3.053810398
 H       -0.462277683    -2.977693000    -0.764789604
 H        0.906628653    -2.463177928    -1.768060271
 H       -0.637313183    -2.857568757    -2.509164687
 H        0.903807441    -0.134906260     2.953613655
 H       -0.518131769    -0.826530823     3.719672583
 H       -0.623302869     0.766558156     2.981792141
 H       -2.534331416    -1.672511046     0.717942348
 H       -2.695923941    -0.151492153     1.619821964
 H       -2.443264473    -1.667952650     2.472044939

