187   

Si        0.000000000     0.000000000     0.000000000
 C        1.865214882     0.000000000     0.000000000
 C       -0.683003247     1.709261987     0.000000000
 C        0.119424352     2.808786341    -0.320319006
 C       -0.410517977     4.099119757    -0.316620370
 C       -1.753142793     4.319006199     0.001286878
 C       -2.557127818     3.215688564     0.318062718
 C       -2.030930504     1.927056915     0.316547342
 C       -2.351871412     5.649472445     0.018351787
 C       -1.697124014     6.788847922    -0.262818241
 C       -2.300113124     8.117679668    -0.244508541
 C       -3.644683531     8.329007856     0.074757599
 C       -4.181486214     9.615541962     0.080578755
 C       -3.378665015    10.720599553    -0.221314626
 C       -2.031190215    10.513615325    -0.540561179
 C       -1.501395377     9.225690440    -0.556379230
Si       -4.079419363    12.417927224    -0.215443913
 C       -2.755406117    13.651218643     0.038020782
 C       -2.540872394    14.744255894    -0.704515019
 C       -1.458208198    15.700139068    -0.451110580
 C       -1.328943032    16.812364632    -1.296483966
 C       -0.319808158    17.742585533    -1.094729343
 C        0.598749586    17.558747088    -0.050451532
 C        0.491113610    16.442645291     0.784854637
 C       -0.527888378    15.518873768     0.575698932
 N        1.609233818    18.574820744     0.080915382
 C        1.202672658    19.624027252     1.041786777
 C        2.956064754    18.033837683     0.337263745
 C        1.342440987    19.247076959     2.530097739
 C        0.372902862    20.043260197     3.424586902
 N       -0.894991483    19.352387434     3.735992887
 C       -1.773825563    19.169680650     2.638709472
 C       -2.157310811    20.309505564     1.903580436
 C       -3.014007159    20.185195661     0.822631073
 C       -3.543994452    18.937925858     0.460300895
 C       -3.187675906    17.816641119     1.212362374
 C       -2.326521623    17.925599381     2.298619744
 C       -0.705467662    18.184508244     4.613098069
 C       -4.444098061    18.866968498    -0.691034231
 C       -5.015042046    17.740281368    -1.138165153
Si       -6.136139297    17.686860842    -2.581328039
 C       -5.726270084    18.992654330    -3.808922767
 C       -4.394485497    19.395762206    -3.976533476
 C       -4.067884918    20.383050122    -4.901767132
 C       -5.058537717    20.980506173    -5.692430085
 C       -6.384284973    20.569534017    -5.529282844
 C       -6.715937537    19.584950989    -4.598876435
 C       -4.667614349    22.011147112    -6.648585836
 C       -5.517526199    22.664218458    -7.459113143
 C       -5.128139121    23.695012425    -8.415708130
 C       -3.803993141    24.108695938    -8.581861088
 C       -3.476985092    25.098298623    -9.508959303
 C       -4.469077038    25.691820878   -10.295507898
 C       -5.797990760    25.277722717   -10.131599166
 C       -6.121890138    24.293430112    -9.202170419
Si       -4.055100086    26.999112895   -11.523723664
 C       -2.215776861    27.111730012   -11.813875736
 C       -4.955271087    26.593313685   -13.150970500
 C       -4.676857024    28.683524532   -10.891480554
 C       -5.915720436    16.002242396    -3.438458021
 C       -7.928491438    17.835603666    -1.971071124
 C       -4.951568322    12.691340078    -1.883779109
 C       -5.352685375    12.645761595     1.177750597
 C       -0.613677208    -0.922414578    -1.547696422
 C       -0.653221403    -0.907855012     1.540722560
 H        1.176733307     2.699505105    -0.577041500
 H        0.236035230     4.938415604    -0.566351303
 H       -3.605742837     3.364836493     0.568536264
 H       -2.706300371     1.105795080     0.572500221
 H       -3.412788920     5.669214892     0.285090114
 H       -0.636549244     6.770724660    -0.530054512
 H       -4.286841724     7.485279105     0.320546779
 H       -5.240217491     9.718558574     0.333677744
 H       -1.359327724    11.342569076    -0.786371364
 H       -0.452994786     9.081874738    -0.811313434
 H       -2.115258051    13.420659355     0.907149492
 H       -3.159721172    15.008242911    -1.572956468
 H       -2.039736886    16.963806136    -2.109886185
 H       -0.226289088    18.616749083    -1.738655071
 H        1.205037947    16.285463534     1.587749299
 H       -0.596759892    14.650028229     1.230469242
 H        3.683165538    18.861325712     0.274022274
 H        3.204759744    17.311631190    -0.460386968
 H        3.081263807    17.532946995     1.307855243
 H       -0.121923430    18.489706932     5.498442437
 H       -0.193118998    17.334910577     4.134825029
 H       -1.691725073    17.844143143     4.977832360
 H       -1.783029045    21.288764946     2.191124078
 H       -3.287003014    21.074165243     0.252967250
 H       -3.581221581    16.832126736     0.948003301
 H       -2.062173483    17.028323077     2.849681176
 H       -4.604772026    19.844152775    -1.169702810
 H       -4.848275969    16.774129739    -0.637064106
 H       -3.577930710    18.960120533    -3.389752886
 H       -3.029601866    20.690649359    -5.012447762
 H       -7.173037248    21.017404118    -6.130895391
 H       -7.769995761    19.306961299    -4.515126507
 H       -3.596632185    22.233007223    -6.670265362
 H       -6.588588191    22.442287469    -7.437442316
 H       -3.012394255    23.659779329    -7.984730121
 H       -2.423912839    25.380613413    -9.593393101
 H       -6.615036187    25.705142831   -10.719780228
 H       -7.159567528    23.985490576    -9.088566129
 H        1.816806257    20.523932404     0.815933689
 H        0.145193456    19.897935495     0.812035230
 H        1.160900074    18.163245982     2.660285304
 H        2.382156698    19.415923565     2.861697391
 H        0.864891297    20.280579335     4.396104698
 H        0.134300432    21.027316925     2.963315004
 H        2.262638515    -1.029544898     0.049577234
 H        2.261139562     0.550984341     0.872487803
 H        2.275199487     0.471085493    -0.910474853
 H       -1.980425759    27.865351413   -12.586551224
 H       -1.809400861    26.144062441   -12.160165107
 H       -1.673119450    27.396492079   -10.895491621
 H       -6.056694825    26.593867158   -12.903241730
 C       -4.721536930    27.635519328   -14.259016640
 C       -4.595407140    25.197418688   -13.691198803
 H       -4.335251409    29.440051162   -11.655887833
 C       -6.209295764    28.775914974   -10.782035594
 C       -4.061579841    29.066622699    -9.532908959
 H       -6.035322586    15.221642484    -2.629223408
 C       -6.971800921    15.724566779    -4.521477358
 C       -4.515606434    15.846242673    -4.057982138
 H       -8.582109318    17.748906025    -2.886407703
 C       -8.326020291    16.712078174    -0.995775552
 C       -8.210596567    19.196479655    -1.310480924
 H       -5.195775055    13.794795512    -1.931969403
 C       -4.038885113    12.350770648    -3.075788956
 C       -6.267288188    11.907867434    -2.026431973
 H       -6.175909089    11.901914513     0.974538075
 C       -4.767920038    12.338013875     2.567529873
 C       -5.974214823    14.054509218     1.194713268
 H       -0.119522109    -1.936294823    -1.515041390
 C       -2.137767837    -1.136424907    -1.572774875
 C       -0.191917854    -0.227723050    -2.855460253
 H       -1.777804472    -0.914952941     1.442422034
 C       -0.180411475    -2.369191523     1.638843747
 C       -0.300160300    -0.177260064     2.848990339
 H       -5.023713087    28.650919437   -13.971783218
 H       -5.316365485    27.377998705   -15.147493785
 H       -3.676266280    27.679178711   -14.592525503
 H       -4.789382720    24.389909310   -12.970674089
 H       -3.546313725    25.115542401   -14.004877069
 H       -5.202332186    24.968722962   -14.578808805
 H       -6.726063410    28.596928630   -11.733323683
 H       -6.502045630    29.786063948   -10.460122369
 H       -6.626058159    28.085251550   -10.035517727
 H       -2.964868706    29.107755289    -9.546222196
 H       -4.359100993    28.385889800    -8.722294379
 H       -4.402713889    30.068193196    -9.233971347
 H       -7.999992589    15.720685904    -4.138160681
 H       -6.806093553    14.730829479    -4.962619702
 H       -6.929481072    16.438567536    -5.356007114
 H       -3.697225631    15.997275419    -3.340753772
 H       -4.345132833    16.530484772    -4.901810456
 H       -4.391792433    14.829634881    -4.459061109
 H       -8.226643146    15.706946082    -1.425308271
 H       -9.382281455    16.819953148    -0.710354320
 H       -7.751951673    16.738450998    -0.058483148
 H       -8.007592582    20.052346100    -1.968988520
 H       -7.636448977    19.349593983    -0.384779207
 H       -9.270946196    19.269039710    -1.030770615
 H       -3.105753734    12.930920333    -3.091415683
 H       -4.555952719    12.565685125    -4.021859436
 H       -3.764633566    11.286581602    -3.115043766
 H       -7.016734806    12.171240154    -1.269327135
 H       -6.123914818    10.818817299    -1.993364043
 H       -6.728747165    12.123590325    -3.001426393
 H       -4.335189045    11.331032275     2.646239999
 H       -5.559068601    12.389327627     3.329126026
 H       -3.996121421    13.056637785     2.876680208
 H       -6.478113489    14.321388484     0.256078628
 H       -5.240422635    14.843326149     1.416335725
 H       -6.738820341    14.118087744     1.982012195
 H       -2.511992071    -1.707644071    -0.713867827
 H       -2.421426966    -1.708969137    -2.467953739
 H       -2.700543460    -0.193572387    -1.622714319
 H        0.894464227    -0.108051137    -2.955805671
 H       -0.649015519     0.764753711    -2.978279965
 H       -0.515997225    -0.824334158    -3.720254290
 H       -0.458495436    -2.975761735     0.767326118
 H       -0.642221355    -2.854940124     2.510806511
 H        0.905144566    -2.459874791     1.776935270
 H       -0.657437879     0.862187364     2.875455504
 H        0.778397268    -0.161261322     3.054410674
 H       -0.770217066    -0.685197080     3.703132194

