187   

Si        0.000000000     0.000000000     0.000000000
 C        1.865474363     0.000000000     0.000000000
 C       -0.679908714     1.710402053     0.000000000
 C        0.141370507     2.815874908    -0.242163129
 C       -0.387354769     4.106655069    -0.239162381
 C       -1.747511838     4.321426016    -0.002240939
 C       -2.569776996     3.212018538     0.237142763
 C       -2.044474285     1.922972467     0.239226133
 C       -2.344599338     5.652705799     0.010475421
 C       -1.670320660     6.796144902    -0.199216199
 C       -2.267965527     8.127203390    -0.186379928
 C       -1.445799073     9.237464980    -0.421106522
 C       -1.971944876    10.526501850    -0.418456491
 C       -3.339209314    10.735015017    -0.197726585
 C       -4.161970034     9.627970137     0.034939940
 C       -3.629490540     8.339328766     0.046785883
Si       -4.043162561    12.438230566    -0.192721255
 C       -5.857250826    12.318320409    -0.407255384
 C       -6.799532948    12.909003450     0.339265381
 C       -8.239704335    12.767407523     0.107982288
 C       -9.138857303    13.431534547     0.952358179
 C      -10.511202581    13.328125825     0.773380910
 C      -11.044259617    12.492399667    -0.229754358
 C      -10.137842397    11.825088779    -1.078958580
 C       -8.767933487    11.989882870    -0.926939432
 N      -12.438462281    12.367756935    -0.434568222
 C      -13.281721604    12.791988787     0.708177761
 C      -12.856248436    11.098057337    -1.056905253
 C      -14.799455579    12.703792602     0.473478832
 C      -15.308203249    13.493992783    -0.750144024
 N      -15.145692731    14.960693581    -0.700279095
 C      -13.820667124    15.402210784    -0.970549830
 C      -13.277774270    15.064359614    -2.226845208
 C      -11.994387381    15.461462426    -2.556063857
 C      -11.232985578    16.239277444    -1.669355733
 C      -11.788322650    16.600022261    -0.441580280
 C      -13.075234116    16.200145371    -0.092594139
 C      -15.808212893    15.577735839     0.459870903
 C       -9.882331399    16.627703972    -2.074678257
 C       -9.056806279    17.366057223    -1.322759699
Si       -7.368561347    17.861476849    -1.809620462
 C       -6.230944097    17.443458196    -0.425217692
 C       -6.651045249    16.550902127     0.569390479
 C       -5.803696203    16.223647900     1.623419095
 C       -4.520893961    16.780924703     1.709846394
 C       -4.103611164    17.668973189     0.715199001
 C       -4.948633419    17.995349018    -0.345248047
 C       -3.675606719    16.402244424     2.836181522
 C       -2.426661224    16.849491000     3.048129884
 C       -1.596929445    16.457906548     4.182404207
 C       -2.039411959    15.566995852     5.163886758
 C       -1.215710092    15.217464549     6.233361204
 C        0.070741010    15.754571438     6.344551926
 C        0.517680575    16.646310610     5.360157436
 C       -0.305604997    16.990130022     4.291490729
Si        1.168287301    15.301574783     7.751240999
 C        0.216426632    14.469820923     9.122830628
 C        2.514771058    14.108548042     7.128640707
 C        2.006553963    16.883861205     8.396173078
 C       -6.829307809    16.915001716    -3.370295604
 C       -7.308100429    19.726798533    -2.159228557
 C       -3.580537962    13.258401993     1.457619330
 C       -3.272305977    13.449796734    -1.606322059
 C       -0.607228917    -0.926229869    -1.548423381
 C       -0.658823852    -0.900818330     1.542127599
 H        1.212420012     2.711215396    -0.435654136
 H        0.274085399     4.950706453    -0.425900954
 H       -3.631949929     3.357078211     0.424806193
 H       -2.734007236     1.097119476     0.435396700
 H       -3.420100946     5.669615353     0.209553002
 H       -0.594738402     6.779445350    -0.398152274
 H       -0.382865183     9.093652939    -0.603847581
 H       -1.280329748    11.354787130    -0.596650212
 H       -5.236432935     9.732099948     0.218382326
 H       -4.289050567     7.494846758     0.236533954
 H       -6.137790739    11.684276960    -1.266080137
 H       -6.558794860    13.558789225     1.190631423
 H       -8.758937858    14.059014630     1.759585227
 H      -11.163706378    13.901541988     1.424116356
 H      -10.500305448    11.194484564    -1.884726628
 H       -8.096730948    11.482416961    -1.621526499
 H      -13.951462017    11.045213793    -1.148275426
 H      -12.510584040    10.209532909    -0.504012557
 H      -12.460373611    11.055269096    -2.088516246
 H      -16.860261264    15.247484459     0.490101115
 H      -15.816167102    16.674675650     0.324848696
 H      -15.342127653    15.345758276     1.429835608
 H      -13.866171201    14.480073184    -2.930310624
 H      -11.573305179    15.168074507    -3.517619594
 H      -11.213618553    17.204263705     0.261126338
 H      -13.479919473    16.498717894     0.868371773
 H       -9.607549002    16.247576197    -3.068242843
 H       -9.365451480    17.739641177    -0.333484232
 H       -7.639389305    16.076033874     0.545179137
 H       -6.144483316    15.531432442     2.391404894
 H       -3.112158544    18.114345341     0.761433354
 H       -4.570914640    18.694573649    -1.095699344
 H       -4.138241109    15.698644360     3.536606848
 H       -1.958360947    17.552912829     2.354661921
 H       -3.037102529    15.135899136     5.101769794
 H       -1.617311564    14.515979846     6.970035436
 H        1.513591367    17.096762906     5.395422591
 H        0.059611320    17.682605780     3.535578860
 H      -13.028003773    12.210329377     1.624495143
 H      -13.029602750    13.863570195     0.912895895
 H      -15.113111586    11.647322469     0.372544017
 H      -15.307436908    13.068811567     1.388537796
 H      -14.798973454    13.116278771    -1.667656346
 H      -16.395744838    13.294007131    -0.888663114
 H        2.263129715    -1.029493122     0.046928649
 H        2.261998049     0.548802858     0.873493981
 H        2.274194002     0.473342780    -0.909942303
 H        0.872258533    14.245901575     9.983181129
 H       -0.232336567    13.517211123     8.790719444
 H       -0.600300062    15.118389593     9.488402117
 H        3.105577904    13.811000382     8.042569327
 C        1.924823135    12.830924817     6.503908810
 C        3.485400879    14.747456658     6.119416182
 H        2.596652693    17.297762104     7.527375190
 C        0.989027072    17.955930437     8.826670686
 C        2.988151737    16.629814520     9.553981840
 H       -7.585150296    17.180456071    -4.165392613
 C       -5.437401859    17.324588452    -3.883496497
 C       -6.856019910    15.388680236    -3.174135879
 H       -6.247805157    19.950697671    -2.474422910
 C       -8.244404756    20.157303704    -3.302124004
 C       -7.619212344    20.571797851    -0.910524890
 H       -4.070893996    14.276267121     1.426475124
 C       -4.120180574    12.497322195     2.681779990
 C       -2.066830795    13.465942058     1.639514586
 H       -2.163847325    13.236629810    -1.563844538
 C       -3.782936808    13.017264762    -2.992239197
 C       -3.460042442    14.966581631    -1.445494201
 H       -0.099120737    -1.933290502    -1.518310356
 C       -2.128035378    -1.161545673    -1.573739821
 C       -0.196106730    -0.222581765    -2.854870508
 H       -1.783569064    -0.896360901     1.444721072
 C       -0.200369991    -2.366685450     1.640673122
 C       -0.297014102    -0.172733450     2.849366826
 H        1.280385141    12.266276641     7.189993032
 H        2.733994684    12.146586442     6.210904355
 H        1.345003654    13.029768663     5.590796714
 H        4.013128214    15.623925743     6.516124335
 H        2.992289711    15.044761637     5.183160713
 H        4.263749052    14.023173038     5.837839279
 H        0.287051591    18.233494987     8.027376260
 H        1.512291239    18.880241346     9.110306250
 H        0.394091657    17.657358978     9.699976249
 H        3.788752430    15.923674685     9.298295037
 H        2.493146965    16.259820377    10.461644219
 H        3.485766488    17.568860085     9.837015636
 H       -5.358513478    18.390369411    -4.130802388
 H       -5.203223857    16.777513287    -4.808336351
 H       -4.632687502    17.082167537    -3.174817034
 H       -7.830482458    14.997572345    -2.848732322
 H       -6.114444219    15.037768626    -2.438778967
 H       -6.618514503    14.881215841    -4.118560484
 H       -8.024669894    19.660242667    -4.255708713
 H       -8.141849646    21.235938753    -3.487514349
 H       -9.306012845    19.984525511    -3.073735580
 H       -6.958167039    20.352416223    -0.060447043
 H       -8.655561217    20.457259349    -0.564163417
 H       -7.485597026    21.639487340    -1.134921462
 H       -5.208845401    12.357079284     2.667567626
 H       -3.885958864    13.051360949     3.601660415
 H       -3.663255357    11.504168637     2.798400494
 H       -1.598747413    14.035005273     0.826657141
 H       -1.516485032    12.522298042     1.751402896
 H       -1.877040372    14.044936679     2.557967275
 H       -3.635902799    11.947935276    -3.196095641
 H       -3.237637987    13.556947747    -3.779246096
 H       -4.847515069    13.243627635    -3.144290472
 H       -2.981380490    15.371771425    -0.542894155
 H       -4.516829278    15.274148997    -1.409798977
 H       -3.012060849    15.496804405    -2.296710185
 H       -2.496292669    -1.729080770    -0.709882091
 H       -2.402026405    -1.746664520    -2.463731813
 H       -2.703014305    -0.226783349    -1.634453440
 H        0.888477814    -0.087937750    -2.955938418
 H       -0.666128742     0.764377266    -2.974053044
 H       -0.513213262    -0.820750981    -3.721022822
 H       -0.485447774    -2.971006010     0.769879690
 H       -0.665613036    -2.847297661     2.513568675
 H        0.884463941    -2.467678654     1.777204174
 H       -0.644973102     0.869981135     2.875456262
 H        0.781932033    -0.166431971     3.053009165
 H       -0.770571434    -0.675572055     3.704520354

