187   

Si        0.000000000     0.000000000     0.000000000
 C        1.865124477     0.000000000     0.000000000
 C       -0.673702601     1.713829336     0.000000000
 C        0.125376738     2.801800923     0.366860430
 C       -0.392950430     4.096476847     0.364051506
 C       -1.719217646     4.335216631    -0.006713483
 C       -2.519826557     3.243533098    -0.368021593
 C       -2.007467561     1.948788378    -0.358579401
 C       -2.305734184     5.671129204    -0.025159632
 C       -1.655252886     6.800283220     0.304085467
 C       -2.248606597     8.133728102     0.283290518
 C       -3.577445189     8.356470605    -0.090140135
 C       -4.107502183     9.645018559    -0.097202712
 C       -3.324550665    10.739760012     0.290700599
 C       -1.996730655    10.519660146     0.672485847
 C       -1.466113104     9.230851338     0.665416867
Si       -4.057969739    12.423352336     0.268423398
 C       -2.800538005    13.744736176     0.370714632
 C       -2.803143280    14.786512861     1.210905264
 C       -1.754023797    15.808672124     1.231627866
 C       -1.856335166    16.860294321     2.155931298
 C       -0.890007192    17.850291197     2.214042278
 C        0.197567647    17.827949722     1.319244753
 C        0.308925817    16.778007827     0.399167296
 C       -0.650512681    15.770472614     0.376222794
 N        1.147179163    18.881360534     1.444393234
 C        0.624162961    20.209012569     1.060322429
 C        2.488253930    18.589615345     0.914912351
 C        0.696154122    20.572558432    -0.435955134
 C       -0.349216956    19.844915786    -1.295037026
 N       -1.745805997    20.220191762    -0.946575161
 C       -2.675337699    19.413369109    -1.686488414
 C       -2.868009583    18.096188374    -1.238868227
 C       -3.749592541    17.256994192    -1.901944769
 C       -4.479831938    17.711674027    -3.011711327
 C       -4.292565703    19.026864794    -3.442826888
 C       -3.401876339    19.875241073    -2.790517283
 C       -2.000679222    21.669335308    -1.052436661
 C       -5.399329548    16.785546043    -3.678519949
 C       -6.151610465    17.094342951    -4.743976527
Si       -7.291647358    15.906982313    -5.551655141
 C       -6.627972593    14.203336692    -5.347143129
 C       -5.332078039    13.933496023    -5.805437662
 C       -4.785556460    12.658979503    -5.673051436
 C       -5.516490818    11.625663316    -5.076224488
 C       -6.814638184    11.895776670    -4.627011507
 C       -7.368726056    13.166554909    -4.770487270
 C       -4.977719452    10.278935206    -4.920195815
 C       -3.746965272     9.912151385    -5.315383255
 C       -3.183215669     8.575413893    -5.172211013
 C       -3.884571923     7.514789581    -4.594830852
 C       -3.299252937     6.253387875    -4.481264465
 C       -1.998042708     6.029887903    -4.941226797
 C       -1.291307751     7.094516202    -5.517958202
 C       -1.877279466     8.351130604    -5.629449434
Si       -1.200254254     4.377642784    -4.804943902
 C       -2.284079301     3.184902250    -3.869486978
 C       -0.856518916     3.641994398    -6.526081510
 C        0.465806379     4.614819891    -3.908246560
 C       -9.003133961    16.065120728    -4.731699057
 C       -7.468296903    16.338566338    -7.393361878
 C       -4.937819868    12.738218975    -1.391625189
 C       -5.306019938    12.552108582     1.697818336
 C       -0.651180580    -0.911439605    -1.539609419
 C       -0.624007094    -0.911868461     1.549204398
 H        1.171298675     2.679283687     0.661512998
 H        0.250315182     4.925112931     0.655402488
 H       -3.559008903     3.405429777    -0.649708556
 H       -2.682163294     1.137140712    -0.644550141
 H       -3.352327221     5.705567778    -0.342033230
 H       -0.607585778     6.770161481     0.616800104
 H       -4.206780135     7.521889577    -0.393252480
 H       -5.147454799     9.757995091    -0.417737353
 H       -1.341357166    11.338516511     0.983603065
 H       -0.429642142     9.078940733     0.960076675
 H       -1.982499515    13.610937275    -0.359726888
 H       -3.595987196    14.958520034     1.948793438
 H       -2.704685714    16.899813578     2.838982780
 H       -0.966262564    18.654641524     2.943137847
 H        1.141039834    16.738236260    -0.296851604
 H       -0.540285259    14.953943364    -0.338625434
 H        3.170764066    19.405667440     1.207973678
 H        2.537527478    18.468959343    -0.178272848
 H        2.863978643    17.663425911     1.385569475
 H       -1.474977561    22.174712226    -0.223710408
 H       -3.077711308    21.865394043    -0.910043786
 H       -1.680070536    22.122479368    -2.001827480
 H       -2.320154704    17.743884699    -0.361995573
 H       -3.880956320    16.232991560    -1.544747485
 H       -4.846039332    19.402157582    -4.302860587
 H       -3.267327989    20.888582044    -3.155889216
 H       -5.399523309    15.782404046    -3.223354964
 H       -6.138673633    18.101715360    -5.184044840
 H       -4.705322091    14.705369811    -6.265318975
 H       -3.777598551    12.473940866    -6.040479152
 H       -7.402117295    11.105454709    -4.164269960
 H       -8.392725018    13.312557343    -4.416599520
 H       -5.651523835     9.561877119    -4.445310411
 H       -3.076602763    10.638676977    -5.786195025
 H       -4.896418042     7.666606459    -4.224761375
 H       -3.893152579     5.461617603    -4.017130103
 H       -0.268357108     6.978274981    -5.887389932
 H       -1.312833655     9.167139153    -6.076312335
 H       -0.437290629    20.287753304     1.399122828
 H        1.204741251    20.956222725     1.648970572
 H        0.580814493    21.668233331    -0.540826596
 H        1.702751015    20.348765019    -0.837259297
 H       -0.134777838    20.033070428    -2.370834211
 H       -0.254717671    18.743988225    -1.134752633
 H        2.262097168    -1.029743262    -0.048078484
 H        2.275623728     0.471475016     0.909996418
 H        2.262241876     0.549352484    -0.872885348
 H       -1.829232069     2.179237709    -3.823343561
 H       -3.278455354     3.080548794    -4.335337911
 H       -2.426688889     3.528541053    -2.826809011
 H       -0.360799376     2.646480962    -6.332195634
 C       -2.148052007     3.384181063    -7.324716753
 C        0.095653773     4.482475566    -7.395561509
 H        1.182016807     5.008433952    -4.685620615
 C        0.388309643     5.651307829    -2.773313606
 C        1.046229445     3.307337954    -3.342238997
 H       -9.624580432    15.219930879    -5.146599026
 C       -8.940874686    15.914091199    -3.200600802
 C       -9.719768211    17.386262281    -5.064595000
 H       -7.914538585    17.375404364    -7.421564701
 C       -6.124415754    16.385199936    -8.141870047
 C       -8.420546776    15.387410118    -8.139760663
 H       -5.398364617    11.758898016    -1.708077071
 C       -6.061611477    13.785824029    -1.310223607
 C       -3.935938592    13.168965323    -2.476920079
 H       -5.715571980    13.603004297     1.657068980
 C       -6.488191097    11.573993951     1.571737153
 C       -4.645799737    12.345942022     3.073522301
 H       -1.777133377    -0.868803649    -1.471295900
 C       -0.231886166    -0.229612595    -2.854062514
 C       -0.239944358    -2.393710487    -1.593330028
 H       -0.139211191    -1.930265386     1.521905980
 C       -0.199533807    -0.216115920     2.855430387
 C       -2.150276028    -1.110318021     1.569327765
 H       -2.849702919     2.712488538    -6.813654490
 H       -1.908797917     2.905822496    -8.284984373
 H       -2.690640951     4.308401620    -7.568982862
 H        1.067259981     4.673752453    -6.923188464
 H       -0.336449706     5.450732249    -7.684388449
 H        0.311962905     3.952597615    -8.334502213
 H        0.060196354     6.644553558    -3.110478878
 H        1.378254762     5.789170815    -2.318157197
 H       -0.287762617     5.346576196    -1.960085238
 H        1.134021268     2.504336699    -4.083261019
 H        0.459379893     2.922743102    -2.493601726
 H        2.059616487     3.483055635    -2.954425629
 H       -8.481771970    14.974157052    -2.866172430
 H       -9.955506995    15.928219497    -2.778649598
 H       -8.393613561    16.736448584    -2.715638134
 H       -9.896822594    17.528126459    -6.138308223
 H       -9.183560142    18.270108432    -4.692282421
 H      -10.710605287    17.406359162    -4.587868450
 H       -5.383573583    17.046507443    -7.672556373
 H       -6.275798697    16.767408562    -9.161589576
 H       -5.665714623    15.392704093    -8.254056380
 H       -9.435321539    15.367937845    -7.721818702
 H       -8.053965029    14.351212685    -8.169996821
 H       -8.525892351    15.705173464    -9.187162299
 H       -6.856259456    13.524011994    -0.601492475
 H       -6.549195359    13.877441790    -2.294249824
 H       -5.698079959    14.788501420    -1.046930092
 H       -3.197120556    12.392066446    -2.715376035
 H       -3.394157155    14.094067730    -2.239562024
 H       -4.474851952    13.375546248    -3.414244755
 H       -7.030690017    11.657849753     0.621426957
 H       -7.223732297    11.771053157     2.364664242
 H       -6.184336478    10.524374662     1.691808032
 H       -3.816066961    13.037826489     3.272128883
 H       -4.260711791    11.325428970     3.212503650
 H       -5.381881855    12.507970152     3.873267819
 H       -0.524286303     0.829794603    -2.905245884
 H       -0.715949227    -0.724980722    -3.707644386
 H        0.849314370    -0.283194093    -3.038195274
 H       -0.574474054    -2.970200388    -0.721239861
 H        0.844544966    -2.534949699    -1.690849617
 H       -0.692145510    -2.877110469    -2.471538033
 H        0.887740842    -0.108142219     2.959301804
 H       -0.533527398    -0.805270717     3.721622500
 H       -0.646170277     0.781900160     2.972230710
 H       -2.527916774    -1.676753177     0.708751990
 H       -2.703204976    -0.161464548     1.617848895
 H       -2.442875065    -1.680452081     2.463155549

