187   

Si        0.000000000     0.000000000     0.000000000
 C        1.865005215     0.000000000     0.000000000
 C       -0.664339806     1.717427307     0.000000000
 C        0.052202853     2.745528815    -0.623027606
 C       -0.439910396     4.049812511    -0.629968502
 C       -1.659896177     4.356004666    -0.020496139
 C       -2.379755997     3.324679323     0.596042858
 C       -1.891578878     2.020294937     0.602691035
 C       -2.211588322     5.706406400    -0.004344996
 C       -1.619343188     6.776526292    -0.561135264
 C       -2.163098150     8.129999142    -0.550033287
 C       -3.382273230     8.444392354     0.057234776
 C       -3.866140040     9.751192793     0.045192285
 C       -3.149339458    10.768928971    -0.594489817
 C       -1.933997986    10.454764691    -1.213906577
 C       -1.448824298     9.149581399    -1.192133354
Si       -3.799610298    12.490731209    -0.603012956
 C       -2.571422026    13.618824090    -1.352247961
 C       -2.857786729    14.496493376    -2.322285813
 C       -1.892056234    15.407544926    -2.935524515
 C       -2.350605942    16.271097668    -3.945068908
 C       -1.490879178    17.157127379    -4.566240458
 C       -0.117910178    17.160262043    -4.238756331
 C        0.343723237    16.298405972    -3.233461524
 C       -0.546475518    15.454762904    -2.572705286
 N        0.711560078    18.092306109    -4.910213637
 C        0.666078752    18.027581074    -6.383759899
 C        2.072557173    18.257401425    -4.376493775
 C        1.503555970    16.913043501    -7.043128987
 C        0.952315635    15.496250914    -6.807320428
 N       -0.447892419    15.314763398    -7.265747762
 C       -1.025603141    14.079527632    -6.870482462
 C       -0.873751656    13.644930966    -5.538108534
 C       -1.422782061    12.446194788    -5.115509549
 C       -2.196289922    11.659646773    -5.982239537
 C       -2.376129364    12.106575123    -7.292528331
 C       -1.808506859    13.296987783    -7.736084926
 C       -0.648485880    15.684404101    -8.677406922
 C       -2.754649316    10.399528776    -5.486001272
 C       -3.506365617     9.568288795    -6.219986892
Si       -4.223831285     7.987054887    -5.643852984
 C       -3.830104572     6.648633031    -6.847008973
 C       -2.862969673     6.839896494    -7.838931926
 C       -2.569100980     5.823105402    -8.746999607
 C       -3.223617097     4.590642316    -8.675227391
 C       -4.186745142     4.398488001    -7.675489884
 C       -4.486802059     5.413548519    -6.771268940
 C       -2.949654160     3.498011620    -9.602508007
 C       -2.054551094     3.548151953   -10.603609767
 C       -1.782963306     2.453430856   -11.529330805
 C       -2.443947691     1.224490950   -11.457982599
 C       -2.153486118     0.204302336   -12.363639299
 C       -1.187723809     0.389334421   -13.357786681
 C       -0.522317498     1.620676495   -13.431099154
 C       -0.819127105     2.639138273   -12.529722168
Si       -0.792877383    -0.946974393   -14.560431724
 C       -1.524760227    -2.580641276   -14.035386803
 C       -1.487851193    -0.488429570   -16.272125963
 C        1.100992857    -1.087708203   -14.693795836
 C       -3.472408068     7.517866951    -3.961745516
 C       -6.113964088     8.112726473    -5.492146051
 C       -5.399121976    12.537680885    -1.634163613
 C       -4.175576358    13.027202794     1.178801790
 C       -0.632562515    -0.888856650    -1.560057493
 C       -0.650537367    -0.933519009     1.525686021
 H        1.011868196     2.567184008    -1.116645044
 H        0.137689681     4.831258347    -1.120666312
 H       -3.333067749     3.540786285     1.074353795
 H       -2.499534221     1.256705880     1.095212653
 H       -3.174958007     5.802783281     0.504281745
 H       -0.649861082     6.676226273    -1.059713541
 H       -3.961562397     7.668187283     0.553011076
 H       -4.818271359     9.939419693     0.549150653
 H       -1.336078415    11.209512567    -1.734439631
 H       -0.502935140     8.922339001    -1.680699588
 H       -1.558622282    13.540671367    -0.929688447
 H       -3.865600686    14.600821613    -2.750992057
 H       -3.400118197    16.248843866    -4.240811255
 H       -1.867716085    17.840034798    -5.324844754
 H        1.391472395    16.281724139    -2.953650848
 H       -0.172637122    14.809771842    -1.777328107
 H        2.569726370    19.088263533    -4.905350046
 H        2.706351207    17.360868322    -4.461849480
 H        2.007626869    18.544318345    -3.311186378
 H       -0.289759120    16.712790845    -8.847034299
 H       -1.731158082    15.694830958    -8.899833438
 H       -0.141040190    15.014781079    -9.389422700
 H       -0.323728936    14.259750470    -4.825683927
 H       -1.273078190    12.127734224    -4.082252500
 H       -2.971950418    11.517475450    -7.990831398
 H       -1.969200605    13.594956214    -8.766717058
 H       -2.495350747    10.198239524    -4.436600816
 H       -3.758720703     9.807690643    -7.265832576
 H       -2.311690681     7.780556178    -7.937498908
 H       -1.817192935     5.997901070    -9.514047347
 H       -4.706598511     3.445433931    -7.601874689
 H       -5.246608110     5.206035538    -6.012521491
 H       -3.540177387     2.593330926    -9.429666623
 H       -1.463201498     4.451819018   -10.777013916
 H       -3.196831891     1.053141166   -10.690790335
 H       -2.704979941    -0.733983635   -12.258543567
 H        0.242330019     1.822180985   -14.186558742
 H       -0.293240494     3.589131133   -12.603625469
 H       -0.397512998    17.919426717    -6.704794161
 H        1.009123003    19.018734889    -6.760447614
 H        1.581928839    17.119479378    -8.127393555
 H        2.543974513    16.947772450    -6.665358508
 H        1.627313361    14.755988161    -7.293233989
 H        0.983885675    15.292018566    -5.709397361
 H        2.262703989    -1.028625087     0.063705132
 H        2.259046095     0.563468549     0.865534260
 H        2.277308345     0.459980274    -0.914916010
 H       -1.248922614    -3.385468963   -14.739841434
 H       -2.627259325    -2.539927527   -13.992327577
 H       -1.158265597    -2.875251949   -13.035238478
 H       -1.265169425    -1.372412142   -16.937168652
 C       -3.013110042    -0.278468339   -16.252511180
 C       -0.827284776     0.754130043   -16.895570934
 H        1.460717085    -0.081814446   -15.058680136
 C        1.768416136    -1.360949852   -13.333716968
 C        1.568360055    -2.150089696   -15.704459875
 H       -3.559349965     8.434411907    -3.306148648
 C       -4.192983842     6.362415829    -3.247351968
 C       -1.980017884     7.162020079    -4.099511163
 H       -6.457354298     7.087257243    -5.166428421
 C       -6.589460367     9.125241176    -4.437721927
 C       -6.791718076     8.435279424    -6.836389322
 H       -5.711820758    13.621907359    -1.662746555
 C       -5.166314966    12.062112989    -3.079158766
 C       -6.560865092    11.730127193    -1.029233073
 H       -4.948249644    12.301220502     1.565541107
 C       -2.941333140    12.935998449     2.094177396
 C       -4.766023223    14.445114847     1.270603733
 H       -0.166625219    -1.915905516    -1.540733938
 C       -2.162487015    -1.056979705    -1.582572623
 C       -0.193365299    -0.189133827    -2.859138463
 H       -1.776371164    -0.915992706     1.444128805
 C       -0.208726147    -2.407413435     1.576435141
 C       -0.260727264    -0.249713567     2.848765300
 H       -3.569911178    -1.156218079   -15.900137433
 H       -3.378082612    -0.070994108   -17.268614089
 H       -3.318240831     0.578859917   -15.635186080
 H        0.257648253     0.652653657   -17.024569842
 H       -1.015212856     1.671210861   -16.319498764
 H       -1.239365344     0.934372914   -17.899186519
 H        1.523342896    -0.607408718   -12.571363503
 H        2.862392979    -1.344958323   -13.440306037
 H        1.512452317    -2.345271315   -12.919945463
 H        1.189989473    -1.979709958   -16.720642289
 H        1.291412383    -3.171381795   -15.411254728
 H        2.665502151    -2.139412351   -15.779520952
 H       -5.250364511     6.567394077    -3.042304200
 H       -3.719820386     6.181646561    -2.268089492
 H       -4.128764193     5.411815456    -3.793043814
 H       -1.377827042     7.959805249    -4.554526385
 H       -1.811968062     6.244943489    -4.682049105
 H       -1.548386967     6.975088056    -3.105867416
 H       -6.159948188     8.955456706    -3.441017999
 H       -7.679831675     9.061086901    -4.317069925
 H       -6.371764639    10.163920404    -4.724439227
 H       -6.552385488     7.712160107    -7.628587847
 H       -6.540991515     9.436163709    -7.213221891
 H       -7.884588235     8.412991903    -6.722543271
 H       -4.387251508    12.622418025    -3.617009218
 H       -6.085805617    12.179934359    -3.669159713
 H       -4.889435247    10.998772941    -3.137772607
 H       -6.817510815    12.029598276    -0.005788536
 H       -6.372217180    10.647571039    -1.027793931
 H       -7.471519883    11.880013174    -1.627552817
 H       -2.493283615    11.932838699     2.121755303
 H       -3.222323281    13.173614868     3.130205280
 H       -2.150457058    13.647098222     1.818958191
 H       -5.704100083    14.562914724     0.712971722
 H       -4.070858274    15.221873336     0.920867410
 H       -4.998122473    14.689609340     2.317079262
 H       -2.549238730    -1.640635539    -0.737728323
 H       -2.468096149    -1.594641793    -2.491952121
 H       -2.697654666    -0.096754003    -1.600891699
 H        0.895883432    -0.103049673    -2.961945081
 H       -0.620381414     0.818685892    -2.967437356
 H       -0.538818428    -0.762872455    -3.731326586
 H       -0.516993669    -2.984068443     0.694722257
 H       -0.665009511    -2.906123444     2.443874607
 H        0.876846482    -2.525995043     1.690905701
 H       -0.585052479     0.798785870     2.909648152
 H        0.820683723    -0.271544105     3.039365154
 H       -0.733936372    -0.767806980     3.694980991

