187   

Si        0.000000000     0.000000000     0.000000000
 C        1.865345982     0.000000000     0.000000000
 C       -0.676570355     1.711982670     0.000000000
 C        0.143406417     2.812023415     0.270362683
 C       -0.380046011     4.104759790     0.267654781
 C       -1.733037791     4.327021437    -0.000390229
 C       -2.554294232     3.223524980    -0.268134078
 C       -2.034657600     1.932236982    -0.267474633
 C       -2.323838158     5.660473179    -0.013959007
 C       -1.649925172     6.798532125     0.224063151
 C       -2.246417192     8.129529397     0.209083114
 C       -3.601186418     8.338925433    -0.060415213
 C       -4.136143319     9.626398400    -0.066000970
 C       -3.329432170    10.730617321     0.223990342
 C       -1.970842830    10.523915478     0.497928373
 C       -1.435165319     9.239003656     0.481051836
Si       -4.019022136    12.435093221     0.220936217
 C       -3.171445745    13.494849289     1.444940946
 C       -2.629628569    13.052779613     2.588724058
 C       -1.954048390    13.917089681     3.558016732
 C       -1.419618308    13.354460331     4.727062176
 C       -0.772879826    14.138696039     5.668909164
 C       -0.715351686    15.540367929     5.511773871
 C       -1.266212035    16.107234722     4.347675027
 C       -1.850661254    15.298422202     3.381642106
 N       -0.055700533    16.327418641     6.474748619
 C       -0.182222777    15.933603566     7.891020980
 C       -0.090632746    17.786816801     6.278733926
 C       -1.575440853    15.489548163     8.369696216
 C       -2.718870122    16.423930205     7.933335279
 N       -4.070688447    15.874261690     8.197075855
 C       -4.236954766    14.590830006     7.577113457
 C       -4.491457069    14.583863522     6.196095034
 C       -4.662775930    13.378787718     5.531391633
 C       -4.582827835    12.158314250     6.219605187
 C       -4.338159626    12.176870075     7.594549946
 C       -4.175776313    13.379022992     8.275298355
 C       -4.428806585    15.914499331     9.626896281
 C       -4.770750602    10.910619085     5.474752512
 C       -4.715929954     9.691444596     6.027721387
Si       -4.951243996     8.136670750     5.093422818
 C       -6.080267570     8.386352804     3.664043077
 C       -7.257356829     9.127219999     3.840966566
 C       -8.129523220     9.331162506     2.775159976
 C       -7.859989991     8.780355125     1.515231137
 C       -6.692860013     8.031733973     1.346192740
 C       -5.811544478     7.834862409     2.408748311
 C       -8.799429934     9.017737604     0.424915137
 C       -8.644163395     8.552300847    -0.826139509
 C       -9.578159496     8.784782039    -1.921977259
 C      -10.749353732     9.530971759    -1.769269731
 C      -11.614471748     9.728117289    -2.845383200
 C      -11.327092298     9.179218290    -4.098938500
 C      -10.152021785     8.431322168    -4.254924622
 C       -9.288477882     8.239831575    -3.180259960
Si      -12.457651750     9.429431347    -5.529967261
 C      -14.097268494    10.139778730    -4.994601662
 C      -11.651766701    10.625723556    -6.772261743
 C      -12.716001594     7.748931906    -6.385652186
 C       -3.240710937     7.583464756     4.466450458
 C       -5.662618158     6.800921004     6.239193770
 C       -3.773206267    13.176827329    -1.512807799
 C       -5.880372330    12.404722392     0.603865707
 C       -0.657885682    -0.901932225    -1.541699192
 C       -0.612132987    -0.922715365     1.548298759
 H        1.209553003     2.701057750     0.486943440
 H        0.280428249     4.944128417     0.477920190
 H       -3.611448832     3.374524628    -0.478889460
 H       -2.723143971     1.110508181    -0.484050522
 H       -3.394336856     5.683340732    -0.239102400
 H       -0.580070681     6.776995620     0.448467579
 H       -4.249659242     7.493584129    -0.281838946
 H       -5.203649629     9.727804036    -0.288049179
 H       -1.293620176    11.353488388     0.728460839
 H       -0.376163790     9.097865747     0.686187607
 H       -3.144592310    14.561639026     1.176684989
 H       -2.648867027    11.994750279     2.888394442
 H       -1.497848329    12.278217581     4.893063316
 H       -0.316873615    13.669140921     6.535497690
 H       -1.243856611    17.178994159     4.183834703
 H       -2.252533044    15.763575767     2.480493171
 H        0.534320373    18.280188299     7.042272796
 H       -1.103250334    18.218511185     6.324886376
 H        0.360259788    18.032442493     5.299572337
 H       -4.485584890    16.971749417     9.939147019
 H       -3.728180699    15.391844767    10.294187427
 H       -5.434848748    15.480279577     9.761131891
 H       -4.549564168    15.527897683     5.656457757
 H       -4.846134970    13.385635535     4.454445945
 H       -4.273152158    11.242133777     8.150581011
 H       -3.987079839    13.367571234     9.344242789
 H       -4.970088244    11.070296370     4.404474496
 H       -4.503587685     9.556126667     7.098470101
 H       -7.519602638     9.576535606     4.804647741
 H       -9.033632022     9.916841566     2.927549044
 H       -6.465866673     7.586626954     0.379302974
 H       -4.909792852     7.245659490     2.212278532
 H       -9.671934451     9.619854619     0.692475308
 H       -7.770564510     7.949375583    -1.092068448
 H      -10.997965811     9.966309713    -0.803056911
 H      -12.515623656    10.320805860    -2.665004284
 H       -9.876252157     7.978281331    -5.211508519
 H       -8.379525813     7.657878901    -3.321599004
 H        0.538652822    15.094272048     8.053930155
 H        0.179444989    16.770356175     8.529462398
 H       -1.783219724    14.465862308     7.989312420
 H       -1.563544527    15.396033897     9.471064169
 H       -2.635147977    17.410396879     8.433294196
 H       -2.662816135    16.613339297     6.835100589
 H        2.263307330    -1.029590255    -0.044418874
 H        2.274884760     0.475762105     0.908263549
 H        2.261183720     0.546414135    -0.875407476
 H      -14.783058903    10.249194820    -5.853724715
 H      -13.980575265    11.136163487    -4.533439996
 H      -14.592326766     9.482026099    -4.257245545
 H      -12.421342307    10.787513500    -7.581496652
 C      -11.323392815    11.993134144    -6.144949587
 C      -10.377907074    10.067868533    -7.431697607
 H      -11.690966442     7.408736629    -6.714386389
 C      -13.281242221     6.682229052    -5.430400549
 C      -13.610094945     7.827231841    -7.635778503
 H       -3.421376729     6.681928753     3.811925757
 C       -2.565255299     8.671530143     3.614723249
 C       -2.278238013     7.162791636     5.591033305
 H       -4.923839850     6.687864107     7.084597243
 C       -7.019872030     7.201790209     6.844856226
 C       -5.807692860     5.434577166     5.545955656
 H       -4.200145948    14.219919412    -1.471547550
 C       -2.287310199    13.284659435    -1.899251799
 C       -4.521011887    12.396496439    -2.608094973
 H       -6.344148271    11.705289327    -0.151655683
 C       -6.172720966    11.855590762     2.008494542
 C       -6.561153806    13.777102744     0.454711098
 H       -1.782609192    -0.900549019    -1.443925339
 C       -0.298584692    -0.172772911    -2.849025932
 C       -0.195420999    -2.366476339    -1.640656726
 H       -0.113530259    -1.934520469     1.516767686
 C       -0.193227782    -0.224222955     2.855099753
 C       -2.135148921    -1.143334485     1.574267127
 H      -12.199577666    12.501182849    -5.721982724
 H      -10.915408685    12.669860398    -6.909468150
 H      -10.562426603    11.928383323    -5.353906527
 H      -10.541805467     9.125896840    -7.970138083
 H       -9.560507236     9.909509196    -6.714180845
 H       -9.996704729    10.782922649    -8.175461111
 H      -12.661975821     6.529926394    -4.534781989
 H      -13.329784655     5.708644496    -5.938667893
 H      -14.301918670     6.905679713    -5.092694550
 H      -13.230313713     8.518087644    -8.399591297
 H      -14.643689223     8.118058171    -7.405819352
 H      -13.669173238     6.840039126    -8.116944323
 H       -3.171049725     8.998371388     2.754492582
 H       -1.627484196     8.288165436     3.186937726
 H       -2.301774781     9.568307786     4.192519294
 H       -2.655739541     6.332225577     6.200230408
 H       -2.023386626     7.989191678     6.268062657
 H       -1.328561918     6.815851883     5.157547125
 H       -6.987129544     8.147590819     7.402325330
 H       -7.355180748     6.435365225     7.557935112
 H       -7.815328486     7.286159569     6.090717180
 H       -4.858913841     5.038425577     5.160057103
 H       -6.525076555     5.450738154     4.713114047
 H       -6.184402246     4.687902868     6.259511054
 H       -1.694626966    13.879997344    -1.191459862
 H       -2.186483745    13.776971414    -2.876768878
 H       -1.799643313    12.304273714    -1.998143900
 H       -5.606370308    12.349418705    -2.446570994
 H       -4.156216439    11.366000756    -2.724903344
 H       -4.377452516    12.884127035    -3.582863990
 H       -5.786688694    10.835622450     2.164488544
 H       -7.258918749    11.789545389     2.170213952
 H       -5.779854768    12.495301361     2.810631096
 H       -6.468320234    14.203208714    -0.551814531
 H       -6.187133249    14.520533733     1.171763704
 H       -7.640022586    13.679984073     0.645860493
 H       -0.648932350     0.869046733    -2.875050971
 H       -0.771254816    -0.676682672    -3.704097836
 H        0.780246445    -0.163911682    -3.053390296
 H       -0.481130274    -2.972546934    -0.771245859
 H        0.889938394    -2.464836515    -1.775031027
 H       -0.657470471    -2.847289332    -2.515207960
 H        0.892707665    -0.100311777     2.955404119
 H       -0.515395848    -0.820557752     3.720779728
 H       -0.653795140     0.766840229     2.975946548
 H       -2.508374938    -1.710878621     0.712470973
 H       -2.701673792    -0.203196427     1.630906700
 H       -2.415067011    -1.722513530     2.466392944

