187   

Si        0.000000000     0.000000000     0.000000000
 C        1.864561425     0.000000000     0.000000000
 C       -0.688900727     1.705581590     0.000000000
 C        0.129874707     2.838201154    -0.039836653
 C       -0.426526275     4.118614654    -0.038612145
 C       -1.811403805     4.290078265    -0.002846056
 C       -2.629901258     3.153308737     0.040726877
 C       -2.078941591     1.877057508     0.048387059
 C       -2.459337642     5.594775539     0.000601877
 C       -1.839909491     6.786980657    -0.029163284
 C       -2.556507729     8.059144506    -0.023496780
 C       -1.841893700     9.262925731    -0.055973700
 C       -2.506842096    10.489456806    -0.051215376
 C       -3.904188443    10.538401367    -0.006627345
 C       -4.619941131     9.334354123     0.020544580
 C       -3.953930802     8.112827579     0.003516726
Si       -4.854168798    12.115427410     0.002568106
 C       -6.464713633    11.876140526     0.839702049
 C       -6.685036333    10.994639884     1.825102198
 C       -7.977094235    10.810847074     2.488304194
 C       -8.086376199     9.854242510     3.509975676
 C       -9.289080121     9.647093874     4.164318999
 C      -10.424749174    10.412496955     3.829006979
 C      -10.319333459    11.364887697     2.803779422
 C       -9.112128937    11.543051785     2.136536441
 N      -11.634423708    10.167393770     4.523597555
 C      -11.542066997    10.175722980     5.992854352
 C      -12.831428220    10.862836678     4.023424755
 C      -11.288199136    11.573371071     6.587780417
 C      -10.991740574    11.486974664     8.096722496
 N       -9.609295981    11.848416515     8.460977950
 C       -8.581578974    11.031557586     7.942389189
 C       -8.757264885     9.632674556     7.902259680
 C       -7.760032568     8.812737539     7.396767762
 C       -6.527669577     9.340525102     6.988086217
 C       -6.344204778    10.724464585     7.059455535
 C       -7.349659749    11.563363471     7.521467725
 C       -9.382403269    13.303342140     8.414365961
 C       -5.498811506     8.441623566     6.459140188
 C       -4.296975911     8.866618554     6.048007145
Si       -2.952913951     7.830871841     5.376430426
 C       -3.529065935     6.331362904     4.484834075
 C       -4.569434539     6.420961814     3.550135732
 C       -5.008854332     5.285935911     2.872213635
 C       -4.409504081     4.040310900     3.098867751
 C       -3.364392218     3.957726880     4.023035092
 C       -2.925679084     5.089791759     4.706333019
 C       -4.888765430     2.866287465     2.375447895
 C       -4.375781136     1.634108711     2.534453832
 C       -4.818211659     0.433122006     1.837655911
 C       -5.854817214     0.433577686     0.900871820
 C       -6.236185191    -0.746892772     0.264335270
 C       -5.584925990    -1.953939696     0.547165870
 C       -4.554255503    -1.957488358     1.494198632
 C       -4.187078928    -0.780339577     2.140246048
Si       -6.110549188    -3.496652149    -0.309116015
 C       -6.409231822    -3.162306277    -2.119555555
 C       -4.780506216    -4.845150906    -0.107432085
 C       -7.712447894    -4.130195051     0.499720873
 C       -1.959629703     8.894748644     4.152515383
 C       -1.805749156     7.353326065     6.819721034
 C       -3.886813726    13.507268975     0.862637069
 C       -5.185889252    12.627888347    -1.799323896
 C       -0.616362037    -0.949073247    -1.533224273
 C       -0.683961160    -0.892744579     1.534647060
 H        1.219336892     2.762344642    -0.072435165
 H        0.229802303     4.985576807    -0.065745544
 H       -3.712831131     3.266767327     0.075234300
 H       -2.773111752     1.030519200     0.104366637
 H       -3.554581894     5.546311365     0.042596523
 H       -0.751839611     6.859332884    -0.062393937
 H       -0.754718622     9.244446211    -0.085486029
 H       -1.898310346    11.396182337    -0.082008995
 H       -5.715827786     9.305927826     0.039122580
 H       -4.537109340     7.192926502     0.020098598
 H       -7.266710963    12.534589872     0.473990204
 H       -5.898070759    10.337243348     2.225488981
 H       -7.212498216     9.266325620     3.800827686
 H       -9.354194084     8.891376901     4.945268283
 H      -11.170400306    11.975148022     2.520785012
 H       -9.058008675    12.282402073     1.336941491
 H      -13.719118860    10.486529052     4.560124288
 H      -12.973060782    10.616913169     2.955531998
 H      -12.796349769    11.957867194     4.134038952
 H      -10.219615444    13.824350458     8.908555929
 H       -9.278838289    13.703730677     7.392736362
 H       -8.471943286    13.548050790     8.990943217
 H       -9.677307251     9.189026284     8.271941149
 H       -7.931025280     7.736967731     7.342101100
 H       -5.399933095    11.166607433     6.736652971
 H       -7.169740255    12.633426213     7.535743528
 H       -5.809789654     7.390832814     6.414490158
 H       -4.022249346     9.933192733     6.120510376
 H       -5.069387037     7.370401403     3.331066595
 H       -5.825127806     5.371570333     2.158016876
 H       -2.873403504     3.004534630     4.211793727
 H       -2.098501260     4.958556545     5.409644664
 H       -5.716994744     3.048773696     1.687229055
 H       -3.545445060     1.469232755     3.230691984
 H       -6.371755119     1.359963837     0.659111731
 H       -7.052618152    -0.685914202    -0.460732669
 H       -4.015806340    -2.869994498     1.764204681
 H       -3.396409893    -0.805231976     2.890344868
 H      -12.485650162     9.746491351     6.397744914
 H      -10.726696910     9.477498898     6.296422305
 H      -10.440366086    12.049110450     6.054557874
 H      -12.155130533    12.230180887     6.402842080
 H      -11.679814438    12.156308519     8.661446645
 H      -11.198656591    10.465786319     8.489671585
 H        2.264432630    -1.028998628    -0.024499451
 H        2.262922281     0.488787392     0.907140013
 H        2.269883405     0.535677369    -0.876528953
 H       -6.685520921    -4.087289843    -2.655883009
 H       -5.500447268    -2.756496475    -2.600925683
 H       -7.221878591    -2.431413825    -2.273825003
 H       -4.635847674    -4.972972533     1.004916094
 C       -5.208155269    -6.208025315    -0.682640782
 C       -3.423613584    -4.455106563    -0.720741248
 H       -8.001309071    -5.056318595    -0.076300062
 C       -7.527515355    -4.523042392     1.976551260
 C       -8.874607395    -3.125890566     0.397647698
 H       -1.396767006     9.648971910     4.773695858
 C       -0.936865671     8.081453441     3.341144865
 C       -2.872937234     9.659223912     3.183135340
 H       -0.980536269     6.729485225     6.369920126
 C       -1.156232306     8.566276725     7.510755399
 C       -2.525909415     6.507985456     7.886055259
 H       -2.910081326    13.599166008     0.305350135
 C       -4.603634266    14.868336162     0.791494064
 C       -3.569530330    13.191322179     2.334648372
 H       -5.783938722    13.582832944    -1.748980817
 C       -3.897938677    12.910266862    -2.592208795
 C       -6.021398277    11.581320238    -2.558238021
 H       -0.202884704    -1.993168150    -1.424472551
 C       -2.148618378    -1.051711156    -1.633832060
 C       -0.080140925    -0.358486315    -2.850373218
 H       -1.800263315    -0.955487869     1.364102616
 C       -0.154758093    -2.327068955     1.705921314
 C       -0.448960188    -0.107631310     2.837212153
 H       -6.127401545    -6.602674916    -0.230801873
 H       -4.427440850    -6.958388956    -0.490258215
 H       -5.352325003    -6.188580497    -1.770987051
 H       -3.015892489    -3.515124606    -0.321565589
 H       -3.460296554    -4.360219976    -1.814274069
 H       -2.675326103    -5.230771950    -0.504042425
 H       -6.782542722    -5.314760401     2.127063121
 H       -8.472767133    -4.910084645     2.384189132
 H       -7.245082656    -3.672407496     2.613219464
 H       -9.121991456    -2.848497336    -0.634936593
 H       -8.688453878    -2.199491401     0.959750646
 H       -9.788503069    -3.564212125     0.824400026
 H       -0.218982093     7.530829113     3.960598916
 H       -0.346590652     8.752129268     2.700795986
 H       -1.413599832     7.356602316     2.661431493
 H       -3.607600224    10.306254596     3.679815925
 H       -3.421159637     8.995487965     2.495326301
 H       -2.265034293    10.310485999     2.536195256
 H       -0.541197515     9.174978410     6.835945426
 H       -0.484193467     8.225910909     8.311745656
 H       -1.890166898     9.230123301     7.988180041
 H       -2.987343549     5.594411318     7.487621332
 H       -3.312238067     7.068928649     8.412202794
 H       -1.812175687     6.182050226     8.655471603
 H       -4.792672325    15.209364818    -0.234303019
 H       -3.982908425    15.644884777     1.261243567
 H       -5.561616228    14.874895093     1.329943851
 H       -2.958720670    12.286336627     2.460064860
 H       -4.472071787    13.072909567     2.952115999
 H       -2.994727071    14.013646980     2.782770943
 H       -3.289332171    13.716089797    -2.162578240
 H       -4.147533104    13.226527223    -3.615393810
 H       -3.256061905    12.023406469    -2.695105365
 H       -6.989513527    11.369124151    -2.084302352
 H       -5.495974154    10.623187282    -2.681814403
 H       -6.246242513    11.940786570    -3.572256633
 H       -2.632942568    -1.424611377    -0.720901408
 H       -2.428214474    -1.750356942    -2.434990790
 H       -2.621693948    -0.091799820    -1.886480342
 H        1.015451134    -0.341728801    -2.906791896
 H       -0.437895945     0.664344114    -3.036619548
 H       -0.423120094    -0.963724463    -3.701484758
 H       -0.361680027    -2.972122106     0.842218640
 H       -0.637648962    -2.805561981     2.570105697
 H        0.925185290    -2.364432274     1.898696894
 H       -0.863416738     0.910980857     2.807715465
 H        0.613530185    -0.021621836     3.099562768
 H       -0.934418752    -0.618016473     3.680588439

