187   

Si        0.000000000     0.000000000     0.000000000
 C        1.865668425     0.000000000     0.000000000
 C       -0.657626619     1.718936761     0.000000000
 C        0.102798657     2.761652906     0.540354667
 C       -0.386995280     4.066573928     0.544754313
 C       -1.644133704     4.360243469     0.009592649
 C       -2.406652655     3.314411595    -0.526263894
 C       -1.922914952     2.008501203    -0.526232103
 C       -2.192066017     5.711775952    -0.004850142
 C       -1.558438664     6.790878351     0.484335953
 C       -2.097173931     8.145241028     0.474698684
 C       -3.351798941     8.453192927    -0.056733834
 C       -3.827866169     9.764028656    -0.044859545
 C       -3.076347824    10.783350773     0.546873626
 C       -1.821063519    10.476330281     1.089282451
 C       -1.332376906     9.174754721     1.038120200
Si       -3.670955130    12.521671620     0.581685310
 C       -3.064438679    13.386859456     2.074454644
 C       -2.811241016    12.791360316     3.248646172
 C       -2.325802478    13.497300321     4.435659088
 C       -2.091645226    12.779508761     5.617780563
 C       -1.631986301    13.412801400     6.762005918
 C       -1.443054326    14.810994466     6.780321737
 C       -1.681599513    15.531811664     5.593892416
 C       -2.091617212    14.874544631     4.441888824
 N       -0.976848577    15.462576034     7.937162208
 C       -1.248619156    14.832109229     9.238527706
 C       -1.115099202    16.928842688     7.975397615
 C       -2.747130922    14.692988327     9.558156357
 C       -2.999352896    14.218518687    10.999912229
 N       -2.288245329    12.990229707    11.411527765
 C       -2.236345987    11.960389342    10.443883695
 C       -3.443567446    11.552440415     9.839674921
 C       -3.440631294    10.547565331     8.886905464
 C       -2.250924201     9.895470763     8.526856300
 C       -1.061790285    10.288061235     9.143928864
 C       -1.046346216    11.301888166    10.095549714
 C       -1.047917989    13.253411809    12.158908142
 C       -2.302994616     8.839935219     7.514062462
 C       -1.234793940     8.150185458     7.091870773
Si       -1.293129367     6.830712726     5.827295942
 C       -2.639871988     7.107880680     4.607920651
 C       -3.102330539     8.406516093     4.360135616
 C       -4.121262003     8.624823083     3.438791129
 C       -4.700748314     7.553748074     2.746323504
 C       -4.231851380     6.260364010     2.988748686
 C       -3.204101292     6.038731062     3.904697536
 C       -5.764757176     7.840003146     1.792435503
 C       -6.408738787     6.925026034     1.049204875
 C       -7.471004164     7.246753435     0.102359112
 C       -7.913573192     8.554809506    -0.113146475
 C       -8.931909434     8.822096245    -1.027107277
 C       -9.524597827     7.784877707    -1.753813194
 C       -9.080686637     6.472516529    -1.542125445
 C       -8.067724331     6.208224881    -0.624401043
Si      -10.869546603     8.121863280    -2.963527269
 C      -11.008874555     9.943449100    -3.342429265
 C      -10.495314674     7.146677750    -4.554995245
 C      -12.529205474     7.515271219    -2.256463500
 C        0.353681155     6.843795415     4.874118533
 C       -1.509128474     5.142166735     6.670519824
 C       -3.022879248    13.419388513    -0.963032690
 C       -5.573989512    12.560459283     0.563012658
 C       -0.655011570    -0.927110370    -1.527159293
 C       -0.631289234    -0.885687490     1.562322634
 H        1.095178209     2.594927645     0.968182762
 H        0.226283572     4.860458293     0.968389164
 H       -3.389050275     3.521660209    -0.946618205
 H       -2.563001566     1.232544805    -0.953820917
 H       -3.185631650     5.802997136    -0.452893530
 H       -0.565657624     6.698920615     0.935577197
 H       -3.969242623     7.669312629    -0.493934225
 H       -4.804804387     9.947233685    -0.500385544
 H       -1.188920010    11.236925938     1.560094797
 H       -0.348093576     8.954693733     1.447852769
 H       -2.930139929    14.470987209     1.944942200
 H       -2.942388250    11.711273023     3.409946151
 H       -2.257854275    11.700127123     5.640533213
 H       -1.430646584    12.815068742     7.649745602
 H       -1.536802390    16.606037061     5.557015737
 H       -2.247968772    15.456985425     3.532871098
 H       -0.754419187    17.319809411     8.940885080
 H       -2.150622764    17.274950078     7.825991849
 H       -0.471995256    17.372748802     7.193187877
 H       -1.266850782    13.945702659    12.990250930
 H       -0.232517852    13.679607592    11.554539422
 H       -0.695079865    12.311459157    12.617799788
 H       -4.377364155    12.029664105    10.125568868
 H       -4.380298065    10.254924933     8.416241302
 H       -0.123073487     9.799395143     8.879319494
 H       -0.100593570    11.582602543    10.547756095
 H       -3.316521724     8.663159618     7.126059769
 H       -0.233415093     8.338027017     7.508309723
 H       -2.678155483     9.281745498     4.863693547
 H       -4.463552663     9.641856308     3.250340072
 H       -4.659320345     5.413582187     2.455373834
 H       -2.868669782     5.007218279     4.043202968
 H       -6.022642832     8.902223308     1.708209524
 H       -6.158979533     5.864010464     1.124713115
 H       -7.465695480     9.382794712     0.435531729
 H       -9.237107340     9.864776081    -1.151048222
 H       -9.506842357     5.622889314    -2.082636265
 H       -7.737732003     5.182435921    -0.472501825
 H       -0.757048518    13.829225008     9.242482561
 H       -0.736706999    15.424885410    10.028837603
 H       -3.262877284    15.657415205     9.395909088
 H       -3.212796212    13.987698063     8.838070614
 H       -2.753919781    15.034209789    11.714550987
 H       -4.090376928    14.016034134    11.130666692
 H        2.264334238    -1.028255180    -0.061812576
 H        2.277294774     0.462086188     0.913948909
 H        2.258424298     0.561839990    -0.867240585
 H      -11.786309381    10.132977499    -4.103930770
 H      -10.055281746    10.339592311    -3.736196850
 H      -11.272940573    10.529304114    -2.444709952
 H      -10.480435739     6.058703753    -4.254211138
 C      -11.565215966     7.318786000    -5.647701290
 C       -9.115496956     7.490409220    -5.145036080
 H      -13.309018688     7.804371359    -3.019036945
 C      -12.596888397     5.990021067    -2.061225302
 C      -12.887085820     8.199004172    -0.924022961
 H        1.163829788     6.655897517     5.634548322
 C        0.432173507     5.739250961     3.805933207
 C        0.619617276     8.207942508     4.212884151
 H       -1.448096159     4.371790671     5.847440149
 C       -0.404755253     4.829028010     7.695569864
 C       -2.881377204     5.002232889     7.353310010
 H       -3.407030118    14.477624036    -0.896193885
 C       -1.485037230    13.471732960    -1.004492180
 C       -3.538438350    12.804630936    -2.276060067
 H       -5.888376002    11.986475373    -0.356520086
 C       -6.188911624    11.870898888     1.794105853
 C       -6.150774225    13.983035075     0.451544310
 H       -1.780152613    -0.920185432    -1.435670971
 C       -0.284383761    -0.227027248    -2.847211744
 C       -0.199237471    -2.395886330    -1.594636717
 H       -0.156195138    -1.908517675     1.552442258
 C       -0.204124033    -0.171653442     2.858198829
 C       -2.159766353    -1.067780296     1.580413073
 H      -12.571669348     7.027215063    -5.320766577
 H      -11.325746869     6.680679879    -6.510833595
 H      -11.622845700     8.345620749    -6.032441847
 H       -8.289964819     7.338483246    -4.434918006
 H       -9.050339203     8.523485382    -5.511328517
 H       -8.901955583     6.842419775    -6.007043025
 H      -12.429136346     5.423841785    -2.986061395
 H      -13.596040721     5.701915937    -1.702928093
 H      -11.885177550     5.624742380    -1.307438816
 H      -12.940747495     9.292928832    -0.995112309
 H      -12.184008377     7.952278026    -0.115372310
 H      -13.877437346     7.864525741    -0.583145420
 H        0.382066068     4.726018227     4.225641309
 H        1.388438101     5.802023651     3.267735433
 H       -0.360301796     5.821878302     3.046246810
 H        0.670281994     9.037423153     4.932237009
 H       -0.138903673     8.471833785     3.459823424
 H        1.586026553     8.193983781     3.690657971
 H        0.604530606     4.836083968     7.265033633
 H       -0.553310116     3.821861555     8.111213035
 H       -0.409304995     5.517198817     8.552310560
 H       -3.726565907     5.152168667     6.666622437
 H       -3.013123570     5.696108096     8.195750760
 H       -2.996738975     3.990329218     7.766284397
 H       -1.041027618    13.953190734    -0.122479494
 H       -1.150271109    14.053037246    -1.875084733
 H       -1.027087463    12.476857092    -1.105124022
 H       -4.632338675    12.818289599    -2.363899278
 H       -3.203997865    11.767116201    -2.422889800
 H       -3.154264871    13.373573186    -3.134825227
 H       -5.858299494    10.830584942     1.920792623
 H       -7.283935660    11.843011666     1.705221759
 H       -5.969818566    12.401773147     2.732184315
 H       -5.827024129    14.515442635    -0.451722989
 H       -5.905297272    14.614049738     1.316773192
 H       -7.248480323    13.941472569     0.404356747
 H       -0.623501328     0.817680538    -2.895394526
 H       -0.757820998    -0.743448329    -3.694260057
 H        0.795534385    -0.232425015    -3.046736932
 H       -0.493197585    -2.983138477    -0.715112690
 H        0.886384884    -2.502299065    -1.720440889
 H       -0.658556072    -2.891554141    -2.462241535
 H        0.883971313    -0.074548734     2.963708552
 H       -0.547186180    -0.742898163     3.732713161
 H       -0.641079786     0.832936361     2.955603438
 H       -2.537601222    -1.658267991     0.736094318
 H       -2.703607641    -0.112506655     1.592872713
 H       -2.463673830    -1.605284514     2.490366302

