187   

Si        0.000000000     0.000000000     0.000000000
 C        1.865418059     0.000000000     0.000000000
 C       -0.679015955     1.710876529     0.000000000
 C        0.137525785     2.813732036    -0.268894170
 C       -0.390264566     4.104895477    -0.265603126
 C       -1.744273210     4.322781551     0.001525873
 C       -2.561843949     3.216165354     0.268192057
 C       -2.037855039     1.926578714     0.267384415
 C       -2.340265714     5.654488155     0.015800591
 C       -1.671169602     6.795752628    -0.220608902
 C       -2.269548572     8.126607550    -0.205760064
 C       -1.454512977     9.235110247    -0.470186056
 C       -1.981746717    10.524386701    -0.466854569
 C       -3.342169085    10.731508240    -0.213672199
 C       -4.159897525     9.626320907     0.049451270
 C       -3.625697611     8.339072395     0.058828931
Si       -4.072758231    12.419634085    -0.201338710
 C       -5.829525451    12.294972973    -0.696018441
 C       -6.871862584    12.830009956    -0.048576837
 C       -8.263971390    12.700568838    -0.487940254
 C       -9.270145151    13.309005051     0.279126224
 C      -10.601902631    13.216538628    -0.092731623
 C      -10.957939545    12.477845635    -1.233073350
 C       -9.964140482    11.863956706    -2.001624013
 C       -8.627576206    11.988181540    -1.632531689
 N      -12.358630911    12.436463356    -1.542723640
 C      -13.049794352    11.384550955    -0.761740613
 C      -12.660307785    12.377575456    -2.983968463
 C      -12.747919243     9.940877788    -1.212282275
 C      -13.001508928     8.916802906    -0.089000723
 N      -11.796812981     8.493744440     0.657350141
 C      -11.190547094     9.524867437     1.425215305
 C      -11.962003431    10.116750236     2.444474472
 C      -11.424813955    11.127019618     3.226169853
 C      -10.107381947    11.566888527     3.031890351
 C       -9.337337636    10.950887262     2.041955240
 C       -9.856764145     9.924043986     1.261941141
 C      -10.877649843     7.685707201    -0.163182130
 C       -9.584901577    12.637881250     3.883759311
 C       -8.344128943    13.131085232     3.782565099
Si       -7.620955724    14.462261400     4.804988949
 C       -5.997956703    13.864725386     5.428497035
 C       -5.868340143    12.529785335     5.834645808
 C       -4.649397166    12.054395778     6.310295361
 C       -3.532093951    12.896998201     6.387601333
 C       -3.666387342    14.228058989     5.983714044
 C       -4.887433390    14.709588707     5.512890485
 C       -2.276593344    12.352343075     6.892950463
 C       -1.137266265    13.052945337     7.023128462
 C        0.118608359    12.508537714     7.528515513
 C        0.254642749    11.178052208     7.932737862
 C        1.474499189    10.698836415     8.410003792
 C        2.588311192    11.540809369     8.487366402
 C        2.454692678    12.875701426     8.081567949
 C        1.234581682    13.352281706     7.610519257
Si        4.205413489    10.924210596     9.114823129
 C        4.227595118     9.063340339     9.241287560
 C        5.569032687    11.518959758     7.927073348
 C        4.540507750    11.657974378    10.838901415
 C       -7.426822627    16.022403859     3.733179427
 C       -8.737104570    14.892318073     6.282090027
 C       -3.921155383    13.078078775     1.577956960
 C       -3.164417813    13.587462995    -1.388389481
 C       -0.610802290    -0.924621135    -1.547683484
 C       -0.657235778    -0.902104811     1.542132248
 H        1.204136161     2.706411908    -0.484418761
 H        0.267260367     4.946565352    -0.475697584
 H       -3.619257757     3.363806744     0.479228813
 H       -2.723985740     1.102918335     0.483904195
 H       -3.410692254     5.673649069     0.240692672
 H       -0.600626286     6.777542485    -0.444689989
 H       -0.395841043     9.090831449    -0.676696423
 H       -1.297506163    11.351930564    -0.672032444
 H       -5.230518034     9.731625877     0.257440370
 H       -4.278803618     7.495114676     0.272581499
 H       -5.974382227    11.722055804    -1.627805437
 H       -6.761184278    13.410074933     0.878282832
 H       -9.006172283    13.870555565     1.177960194
 H      -11.380349581    13.702551446     0.494049533
 H      -10.225666997    11.296941610    -2.889654034
 H       -7.863046297    11.512278970    -2.246941499
 H      -13.744775296    12.532832904    -3.118309767
 H      -12.379910050    11.437429972    -3.480448660
 H      -12.142182163    13.209766401    -3.492263898
 H      -11.433236777     6.829049262    -0.581747037
 H      -10.084142398     7.271877913     0.484739440
 H      -10.405322955     8.232721357    -0.994303161
 H      -12.977893439     9.771358434     2.619546932
 H      -12.036876557    11.580427109     4.005449132
 H       -8.302312120    11.262570752     1.876753579
 H       -9.227577229     9.472006006     0.500205986
 H      -10.314642870    13.004109200     4.616491143
 H       -7.636196308    12.735690267     3.032146040
 H       -6.706130763    11.825361367     5.788425339
 H       -4.564740297    11.014469291     6.621443776
 H       -2.814625200    14.903403737     6.035926327
 H       -4.933171904    15.760941621     5.216694582
 H       -2.315172470    11.294607302     7.170341712
 H       -1.098001952    14.109953556     6.744645026
 H       -0.595723045    10.500526812     7.877632628
 H        1.519517356     9.648471954     8.711229811
 H        3.291239812    13.579228280     8.118590715
 H        1.150207726    14.392138767     7.300931579
 H      -12.763311450    11.518222729     0.308739189
 H      -14.140762927    11.588513579    -0.824507127
 H      -13.360773017     9.688200050    -2.095109519
 H      -11.695234538     9.871915945    -1.550625108
 H      -13.741117842     9.312793846     0.642031242
 H      -13.463599810     7.996420312    -0.514031570
 H        2.263493859    -1.029566752     0.041913876
 H        2.261457315     0.544636052     0.876381601
 H        2.274556341     0.477892081    -0.907337879
 H        5.213512362     8.698781644     9.580868265
 H        4.021855129     8.597416802     8.260325888
 H        3.472001932     8.692432956     9.955833882
 H        5.523138901    12.646749216     7.943852107
 C        6.985429491    11.098684195     8.358067694
 C        5.328552201    11.059746328     6.477559356
 H        5.510547799    11.195405385    11.182970400
 C        4.716912620    13.186981034    10.836933243
 C        3.447643037    11.289328283    11.859008679
 H       -6.984607057    16.805739943     4.414708854
 C       -6.470452427    15.835237096     2.542797491
 C       -8.771816332    16.554651350     3.205995934
 H       -9.747027222    15.145117011     5.846593763
 C       -8.916849616    13.710238924     7.251995202
 C       -8.242767954    16.112930288     7.078691960
 H       -4.534665004    14.024288028     1.618108780
 C       -4.492848950    12.083988411     2.603211795
 C       -2.480616035    13.430079057     1.987113051
 H       -2.094011392    13.624749179    -1.031872417
 C       -3.163894272    13.074199197    -2.839428505
 C       -3.722774369    15.021899493    -1.362322412
 H       -0.108309903    -1.934475908    -1.517135693
 C       -2.133025190    -1.150996196    -1.572126874
 C       -0.195848744    -0.224554855    -2.854883906
 H       -1.781842130    -0.902985618     1.443540263
 C       -0.192230229    -2.365794310     1.642339468
 C       -0.300330205    -0.171418058     2.849281693
 H        7.258616003    11.454310631     9.359946415
 H        7.728923480    11.523621567     7.668022816
 H        7.134437949    10.010960074     8.336892994
 H        4.352083070    11.371709223     6.079895876
 H        5.402927374     9.971133335     6.354145672
 H        6.085249063    11.499039723     5.812089483
 H        5.535950799    13.530733380    10.192678369
 H        4.957240380    13.538128163    11.851155773
 H        3.804080152    13.721049361    10.537693108
 H        3.313930990    10.207037784    11.983584704
 H        2.467021548    11.718887812    11.608228781
 H        3.710700997    11.682383850    12.851553619
 H       -5.478391620    15.461019616     2.832568062
 H       -6.300294167    16.798215435     2.040464685
 H       -6.874661538    15.159119512     1.775251919
 H       -9.483521963    16.808527970     4.001593792
 H       -9.273453284    15.854133049     2.522598033
 H       -8.612173714    17.479925893     2.633917329
 H       -9.307297620    12.802533463     6.772147218
 H       -9.635053038    13.975373811     8.040711561
 H       -7.984135930    13.436462831     7.766329475
 H       -8.188166872    17.031520102     6.480870498
 H       -7.257609040    15.953732852     7.539761639
 H       -8.935085186    16.327589478     7.905925485
 H       -5.546498460    11.828188295     2.432663836
 H       -4.438837186    12.517857195     3.615260891
 H       -3.926264723    11.143289719     2.652285361
 H       -2.026700382    14.210524123     1.365071250
 H       -1.808634649    12.560312167     1.982543887
 H       -2.469708392    13.811370990     3.020116811
 H       -2.742705090    12.064688161    -2.945382319
 H       -2.548936928    13.730532457    -3.471542499
 H       -4.165904337    13.064881189    -3.290037187
 H       -3.671532003    15.489970542    -0.370599074
 H       -4.764904783    15.082321646    -1.707078840
 H       -3.139257303    15.665112484    -2.036214565
 H       -2.503142198    -1.720599079    -0.710378134
 H       -2.411645981    -1.730444609    -2.464412896
 H       -2.702986663    -0.212852285    -1.627507615
 H        0.889363613    -0.094628841    -2.955337488
 H       -0.661806553     0.764043313    -2.975911779
 H       -0.514772142    -0.822817030    -3.720342715
 H       -0.472696521    -2.971906567     0.771289670
 H       -0.657142972    -2.848161568     2.514490466
 H        0.892764354    -2.461738797     1.781330598
 H       -0.652590943     0.869860242     2.874090075
 H        0.778281152    -0.160478984     3.054531072
 H       -0.772973564    -0.675597958     3.704193019

