187   

Si        0.000000000     0.000000000     0.000000000
 C        1.865223365     0.000000000     0.000000000
 C       -0.669680345     1.715257838     0.000000000
 C        0.112035430     2.789249343     0.438183787
 C       -0.399606894     4.086642380     0.436320534
 C       -1.703936413     4.339505879     0.003634576
 C       -2.487958186     3.261897440    -0.429388084
 C       -1.979798744     1.965719555    -0.429262668
 C       -2.281167944     5.679418854    -0.015811115
 C       -1.639980466     6.795529049     0.370668007
 C       -2.219918964     8.134346747     0.350097367
 C       -1.439772511     9.214874723     0.781462577
 C       -1.951784270    10.510537239     0.779224297
 C       -3.254182104    10.756980217     0.331003013
 C       -4.035381404     9.678763890    -0.102716841
 C       -3.524137677     8.382535844    -0.088071418
Si       -3.971672277    12.450841987     0.310194693
 C       -5.057221019    12.675624112    -1.146060364
 C       -4.868746569    12.038172726    -2.309148494
 C       -5.721089303    12.199549737    -3.488324552
 C       -5.408017922    11.468271790    -4.645223738
 C       -6.179458248    11.581951227    -5.789089164
 C       -7.319770343    12.411224018    -5.794486044
 C       -7.634522740    13.145674620    -4.642096936
 C       -6.826966545    13.051486934    -3.512831009
 N       -8.063054311    12.480045419    -7.000364736
 C       -8.650553178    11.198732966    -7.442310545
 C       -8.974504869    13.626148857    -7.133878039
 C      -10.038604554    10.847745022    -6.877772595
 C      -10.075391761    10.613672906    -5.355798334
 N       -9.556282071     9.316282379    -4.897530334
 C      -10.064476002     8.152586330    -5.482906013
 C      -11.411424959     8.111468359    -5.909134902
 C      -11.927560397     6.965478167    -6.490386869
 C      -11.151709656     5.805139192    -6.625152385
 C       -9.828600654     5.838139272    -6.175437326
 C       -9.286890861     6.983690903    -5.608937361
 C       -8.143629885     9.323669190    -4.498970833
 C      -11.747439058     4.622071875    -7.247189756
 C      -11.101424933     3.462440453    -7.427081303
Si      -11.794358128     1.957260994    -8.195766502
 C      -10.647910045     1.333023098    -9.492185340
 C       -9.689396939     2.180353023   -10.057814150
 C       -8.819881652     1.708410035   -11.040503734
 C       -8.895219603     0.385838862   -11.485569043
 C       -9.860499324    -0.459053534   -10.921458935
 C      -10.727984057     0.007503104    -9.937386688
 C       -8.007041721    -0.151653716   -12.510901535
 C       -7.041565775     0.547618863   -13.131261017
 C       -6.154181545     0.008466449   -14.156501321
 C       -6.228517054    -1.315180314   -14.597656436
 C       -5.359968252    -1.789481245   -15.580571490
 C       -4.400242964    -0.946115943   -16.148978360
 C       -4.324052977     0.382365244   -15.708849102
 C       -5.188867525     0.851271944   -14.723963433
Si       -3.246838061    -1.557000005   -17.447075442
 C       -3.786122636    -3.210723703   -18.121025813
 C       -3.184099964    -0.266544867   -18.845084201
 C       -1.500947737    -1.737048736   -16.710207993
 C      -12.004648257     0.629905482    -6.848051631
 C      -13.491515772     2.303125204    -8.981201950
 C       -5.010517421    12.701501567     1.883016834
 C       -2.595881692    13.762451951     0.268240434
 C       -0.651248925    -0.911762530    -1.539241046
 C       -0.628170908    -0.912239049     1.547426614
 H        1.139385093     2.654004503     0.787650473
 H        0.230632640     4.905469885     0.778493263
 H       -3.507014487     3.436629138    -0.769541980
 H       -2.638927877     1.165346010    -0.777092125
 H       -3.312363853     5.727387243    -0.378362964
 H       -0.609393031     6.748238573     0.734090071
 H       -0.421943044     9.043201878     1.126408004
 H       -1.298896805    11.312294068     1.134563532
 H       -5.061595519     9.812493639    -0.462532702
 H       -4.152654642     7.560460275    -0.425871841
 H       -5.879185115    13.393363873    -1.009702698
 H       -4.047229172    11.323562944    -2.467062300
 H       -4.535630339    10.812843254    -4.649759950
 H       -5.902911956    11.044730179    -6.694425088
 H       -8.501709469    13.798596133    -4.621417674
 H       -7.078703515    13.642953884    -2.631772732
 H       -9.356564484    13.657680405    -8.169445172
 H       -8.406573053    14.559539888    -6.968782050
 H       -9.833487819    13.610844194    -6.445334342
 H       -7.895084980    10.275857119    -3.993420880
 H       -7.446747273     9.197560442    -5.343835547
 H       -7.966890527     8.518573752    -3.761986734
 H      -12.050300911     8.979732291    -5.781503827
 H      -12.962954692     6.963683893    -6.832629808
 H       -9.202307201     4.949039836    -6.268640707
 H       -8.253190535     6.967576946    -5.279626205
 H      -12.788256232     4.777086916    -7.560366073
 H      -10.058357506     3.336566705    -7.091653953
 H       -9.587491467     3.226815001    -9.751731723
 H       -8.078812301     2.384874285   -11.462285310
 H       -9.935482549    -1.492293914   -11.254430411
 H      -11.459809124    -0.697022687    -9.533007936
 H       -8.178235336    -1.203471969   -12.758290294
 H       -6.869957531     1.599490898   -12.884608658
 H       -6.969276788    -1.991115159   -14.174459498
 H       -5.465943793    -2.834661263   -15.883951109
 H       -3.594661396     1.087413854   -16.117613719
 H       -5.113447527     1.885725030   -14.394081245
 H       -8.715334292    11.252110640    -8.556139967
 H       -7.939636270    10.372915165    -7.215301960
 H      -10.763117636    11.642590609    -7.136063024
 H      -10.406273271     9.939899073    -7.401966607
 H       -9.521954340    11.425705212    -4.830716210
 H      -11.130687476    10.692737224    -4.997488844
 H        2.263473276    -1.028793198    -0.057794215
 H        2.276618830     0.464634968     0.912970025
 H        2.259270534     0.557968413    -0.869021772
 H       -3.116338166    -3.547525948   -18.932331649
 H       -4.808411730    -3.154417967   -18.537151923
 H       -3.782018702    -3.991933668   -17.340878225
 H       -2.807951208     0.686036850   -18.370148270
 C       -2.216675488    -0.639858022   -19.982319558
 C       -4.573158524     0.022311645   -19.442458487
 H       -0.864606231    -2.167535407   -17.536591025
 C       -0.873829419    -0.401080231   -16.273234014
 C       -1.461653914    -2.712758261   -15.519711540
 H      -12.459108810    -0.265921061    -7.361715018
 C      -10.661660955     0.194641335    -6.234918478
 C      -12.955247910     1.064733272    -5.718933297
 H      -14.117239738     2.777014728    -8.170312928
 C      -13.402232209     3.291044143   -10.158936479
 C      -14.215981534     1.031662802    -9.458169950
 H       -5.417228640    13.752255739     1.824448683
 C       -6.203194945    11.731126296     1.955608248
 C       -4.186115662    12.578607943     3.176155958
 H       -1.974382630    13.592375006     1.194690903
 C       -1.679906333    13.610472842    -0.959416658
 C       -3.130766256    15.204938521     0.314620564
 H       -1.776130788    -0.917058805    -1.444084667
 C       -0.292695623    -0.187712721    -2.849556342
 C       -0.181210729    -2.374512938    -1.630431149
 H       -0.156176388    -1.936431317     1.513255903
 C       -0.190764818    -0.228468606     2.855762967
 C       -2.156807878    -1.091242347     1.570978880
 H       -1.184101840    -0.792033192   -19.642404309
 H       -2.179242656     0.170923233   -20.724447855
 H       -2.525206719    -1.540931449   -20.528699155
 H       -5.307349495     0.352561331   -18.693575711
 H       -5.002624491    -0.840782661   -19.968052265
 H       -4.504455076     0.832215917   -20.182649728
 H       -0.789608125     0.328562837   -17.088473679
 H        0.149221945    -0.569238885   -15.906130401
 H       -1.419724377     0.076209648   -15.447172181
 H       -1.813629945    -3.721657187   -15.770385927
 H       -2.048105312    -2.360090331   -14.658991160
 H       -0.428755059    -2.828361139   -15.161100682
 H       -9.940488164    -0.169593239    -6.980090780
 H      -10.820116176    -0.634504320    -5.530880392
 H      -10.172861685     0.995430887    -5.663054480
 H      -13.965778413     1.309408677    -6.070466033
 H      -12.580818183     1.931107487    -5.154535179
 H      -13.071882808     0.250143671    -4.990070515
 H      -12.930047177     4.247519821    -9.895963568
 H      -14.409297887     3.533618111   -10.525737459
 H      -12.852369587     2.879951202   -11.017949562
 H      -14.409326114     0.311921784    -8.652693686
 H      -13.675873489     0.505671744   -10.257926497
 H      -15.198789817     1.294093476    -9.876067929
 H       -6.873499205    11.796112554     1.087843935
 H       -6.819029187    11.956261632     2.838050313
 H       -5.893583585    10.680915563     2.058597773
 H       -3.365981612    13.304963479     3.241656952
 H       -3.756988864    11.576031588     3.316897274
 H       -4.828072734    12.761261028     4.050258690
 H       -1.213170557    12.618860190    -1.038260325
 H       -0.855395165    14.335508634    -0.907635918
 H       -2.201683898    13.804540301    -1.907897846
 H       -3.734180198    15.418557096     1.206030227
 H       -3.730663705    15.467063382    -0.568026536
 H       -2.291625426    15.915554500     0.336157699
 H       -0.645842075     0.852917311    -2.881585149
 H       -0.762113211    -0.697560921    -3.703032465
 H        0.786456916    -0.176450464    -3.052347274
 H       -0.465828518    -2.978088173    -0.758937771
 H        0.904819434    -2.468398162    -1.762336435
 H       -0.639226084    -2.861693230    -2.503667695
 H        0.898093487    -0.134829379     2.956472925
 H       -0.529198641    -0.818032397     3.719959815
 H       -0.624765460     0.774221812     2.979292951
 H       -2.542069041    -1.659843729     0.715100805
 H       -2.698423040    -0.135471385     1.611883688
 H       -2.455820052    -1.650726352     2.469349692

