187   

Si        0.000000000     0.000000000     0.000000000
 C        1.864888032     0.000000000     0.000000000
 C       -0.678222404     1.711372843     0.000000000
 C        0.124525862     2.802480240    -0.347673907
 C       -0.397861382     4.095143572    -0.344830740
 C       -1.728628895     4.327073121     0.013474282
 C       -2.531959916     3.232978100     0.360271333
 C       -2.016137066     1.940192624     0.348589398
 C       -2.314742310     5.663034633     0.029783600
 C       -1.649223738     6.785166375    -0.291399155
 C       -2.221030547     8.125987063    -0.279785076
 C       -3.548638439     8.380554733     0.075009820
 C       -4.049551576     9.682581788     0.070568054
 C       -3.238363206    10.753319509    -0.317365107
 C       -1.908754917    10.498657997    -0.680923005
 C       -1.405780331     9.201677679    -0.655774214
Si       -3.858467733    12.486036368    -0.337886372
 C       -2.999040665    13.469545159    -1.618793675
 C       -2.516991346    12.955310979    -2.758269147
 C       -1.827964348    13.733573160    -3.789255378
 C       -1.372247514    13.066702431    -4.937872401
 C       -0.715280510    13.756600891    -5.941487241
 C       -0.453142784    15.133051110    -5.806101891
 C       -0.903536446    15.802651373    -4.661059184
 C       -1.600000788    15.106299324    -3.676639008
 N        0.227508375    15.765050520    -6.886174573
 C        1.634404348    15.308022919    -7.028576943
 C        0.111790163    17.233102226    -6.930129723
 C        2.001280947    15.169026928    -8.518023799
 C        1.384705851    13.893969938    -9.124684283
 N        2.067047350    12.713363433    -8.532279073
 C        1.132093337    11.685481571    -8.148619487
 C        0.171746574    11.154262267    -9.018417966
 C       -0.691610024    10.164908898    -8.567319549
 C       -0.632462398     9.711533477    -7.241556368
 C        0.329075341    10.251416205    -6.380966108
 C        1.215739616    11.224339805    -6.830119200
 C        3.128231512    12.173408725    -9.406031163
 C       -1.569552178     8.665476873    -6.824276730
 C       -1.621027444     8.143435430    -5.591961912
Si       -2.803184852     6.836058729    -5.097430220
 C       -3.264814729     5.724319632    -6.486381918
 C       -2.378689367     5.507597834    -7.548983174
 C       -2.729764618     4.665123321    -8.600512842
 C       -3.965964822     4.006122138    -8.608996175
 C       -4.843598273     4.214325356    -7.541223279
 C       -4.496549571     5.060376122    -6.488892370
 C       -4.287927853     3.133614284    -9.733252485
 C       -5.436062285     2.448195784    -9.866574740
 C       -5.756470056     1.576020212   -10.991602936
 C       -4.878326583     1.368629597   -12.058504806
 C       -5.224899556     0.525961154   -13.114474479
 C       -6.457428474    -0.134365179   -13.122405421
 C       -7.339858978     0.070970037   -12.053101600
 C       -6.993380734     0.917296052   -11.003467942
Si       -6.930303032    -1.249801212   -14.508147077
 C       -5.473322088    -1.632798376   -15.608570949
 C       -7.635757578    -2.855132090   -13.767493952
 C       -8.285012981    -0.421370334   -15.557924530
 C       -2.073935155     5.795469499    -3.687680495
 C       -4.346880828     7.733646413    -4.432330717
 C       -5.729114463    12.518489931    -0.677987248
 C       -3.528436249    13.277309695     1.358780957
 C       -0.618239468    -0.893495813    -1.563295034
 C       -0.659616374    -0.918115508     1.530290314
 H        1.174691398     2.683686819    -0.628886564
 H        0.247045230     4.927814890    -0.620650296
 H       -3.571377450     3.392259998     0.640926490
 H       -2.691004119     1.124673085     0.623728132
 H       -3.366070048     5.701896433     0.327748881
 H       -0.595985942     6.740786771    -0.586480964
 H       -4.202796512     7.561055541     0.365851544
 H       -5.090994089     9.823567690     0.371258947
 H       -1.226891587    11.299844548    -0.988078702
 H       -0.369276466     9.023625670    -0.936441402
 H       -2.913491425    14.543152814    -1.394512645
 H       -2.603010676    11.887831727    -3.012117223
 H       -1.548858047    11.995558865    -5.053811554
 H       -0.394689731    13.239156654    -6.846155940
 H       -0.715764058    16.863091754    -4.529428707
 H       -1.955502120    15.647399663    -2.800184594
 H        0.515644152    17.589335536    -7.893528866
 H        0.640533089    17.756016243    -6.118545866
 H       -0.954844423    17.515780000    -6.900312817
 H        3.872802392    12.965112821    -9.590576657
 H        2.768842971    11.791818601   -10.373349915
 H        3.641010754    11.351069591    -8.877993220
 H        0.108800325    11.510417806   -10.043032658
 H       -1.429449592     9.745480425    -9.250703784
 H        0.393080728     9.908007065    -5.348491235
 H        1.970776790    11.641760571    -6.164709112
 H       -2.236575216     8.338759625    -7.634922030
 H       -0.955464381     8.495925367    -4.788668051
 H       -1.395032404     5.986740877    -7.590389776
 H       -2.031380555     4.515242536    -9.421649579
 H       -5.809065732     3.712664038    -7.522276011
 H       -5.221916111     5.180094016    -5.678987184
 H       -3.507274065     3.064956649   -10.496662051
 H       -6.216988926     2.516639215    -9.103716051
 H       -3.910968975     1.867439566   -12.074266339
 H       -4.496996904     0.404909142   -13.921457247
 H       -8.316315912    -0.419185565   -12.005042726
 H       -7.692670877     1.065541605   -10.182822404
 H        2.339142809    16.003207069    -6.525791592
 H        1.768894253    14.316261533    -6.533746543
 H        1.650291735    16.049012331    -9.086399027
 H        3.102256525    15.138638220    -8.616815391
 H        0.295617676    13.880116899    -8.883817728
 H        1.462226145    13.918934628   -10.229728637
 H        2.262291010    -1.029435227     0.053755546
 H        2.261177931     0.554036690     0.870315884
 H        2.275599825     0.466807452    -0.912392942
 H       -5.757846578    -2.328746582   -16.417795845
 H       -4.657408186    -2.107982232   -15.034220893
 H       -5.066930850    -0.721683556   -16.081557830
 H       -8.534821915    -2.545860259   -13.158821452
 C       -8.109930776    -3.864140726   -14.828466079
 C       -6.643488564    -3.552791566   -12.819590869
 H       -8.478980914    -1.128217147   -16.415853579
 C       -9.610762205    -0.212508489   -14.804435686
 C       -7.833656331     0.928788489   -16.144519411
 H       -1.960508648     6.496357016    -2.808106113
 C       -3.001862571     4.644442846    -3.261535847
 C       -0.686991638     5.218441392    -4.020300414
 H       -4.965547988     6.949955530    -3.909464235
 C       -3.997953950     8.831427647    -3.414997715
 C       -5.199856274     8.356931586    -5.551621640
 H       -6.211753008    11.956834946     0.173168029
 C       -6.312377940    13.942754968    -0.698554233
 C       -6.101102473    11.809374505    -1.992093886
 H       -3.926857837    14.330959048     1.295058556
 C       -4.253279716    12.560925332     2.511423441
 C       -2.025626838    13.353531806     1.683000094
 H       -0.115492583    -1.903217911    -1.558340986
 C       -2.140855830    -1.118457216    -1.580068176
 C       -0.214812733    -0.162417214    -2.857011572
 H       -1.783993679    -0.922772503     1.429411823
 C       -0.189701836    -2.381113558     1.617150269
 C       -0.308302464    -0.199193211     2.845512366
 H       -8.875890127    -3.459096150   -15.502326881
 H       -8.563239737    -4.738339488   -14.338820693
 H       -7.290165026    -4.251123153   -15.448106553
 H       -6.306862665    -2.908817851   -11.994368156
 H       -5.748155905    -3.926377530   -13.333813916
 H       -7.119039390    -4.426890183   -12.352406256
 H      -10.046531923    -1.144183974   -14.422183499
 H      -10.361839616     0.221851230   -15.480361178
 H       -9.517097643     0.487711050   -13.962393654
 H       -6.933160594     0.855177109   -16.767678004
 H       -7.642178843     1.687245224   -15.371671280
 H       -8.621536868     1.340866765   -16.791196858
 H       -3.989992042     4.979847574    -2.923377053
 H       -2.558171333     4.104146646    -2.409118473
 H       -3.150461756     3.895939127    -4.051781687
 H        0.058783764     5.986466468    -4.261120522
 H       -0.710624924     4.502144286    -4.853401520
 H       -0.296663063     4.663692330    -3.153319928
 H       -3.397986342     8.474858231    -2.565296239
 H       -4.918343735     9.245550506    -2.977778627
 H       -3.462277471     9.679037941    -3.865389967
 H       -5.540533259     7.629897105    -6.300643789
 H       -4.677127991     9.162265074    -6.088161815
 H       -6.107053461     8.808344138    -5.125748652
 H       -6.149575740    14.496110415     0.234924978
 H       -7.401713450    13.900493179    -0.842453647
 H       -5.918277677    14.552951279    -1.523800441
 H       -5.794610469    10.754087705    -2.017967284
 H       -5.675047739    12.300122165    -2.879759896
 H       -7.191329945    11.816650400    -2.130649821
 H       -5.345053482    12.550594629     2.400451205
 H       -4.047038606    13.074126812     3.462025704
 H       -3.920395851    11.521994670     2.647257239
 H       -1.443574944    13.901292063     0.929141309
 H       -1.563914338    12.362988967     1.803288490
 H       -1.871282476    13.881406177     2.634818482
 H       -2.503403767    -1.713734729    -0.732806396
 H       -2.427942641    -1.671143941    -2.486844346
 H       -2.711348345    -0.179083952    -1.602450378
 H        0.869335193    -0.030649946    -2.964791027
 H       -0.682600057     0.828507925    -2.952000483
 H       -0.541684896    -0.740453608    -3.733662880
 H       -0.465846479    -2.979475724     0.739243292
 H       -0.655263428    -2.873893783     2.483166036
 H        0.895227719    -2.475090158     1.758226219
 H       -0.665193552     0.840009655     2.880943981
 H        0.770022120    -0.185494955     3.052753865
 H       -0.779519924    -0.714582094     3.694597103

