187   

Si        0.000000000     0.000000000     0.000000000
 C        1.864147774     0.000000000     0.000000000
 C       -0.683261680     1.707152901     0.000000000
 C        0.118518765     2.827879439     0.233983147
 C       -0.434516528     4.109494056     0.226481075
 C       -1.798830524     4.291284873    -0.004894212
 C       -2.601859510     3.165790011    -0.234488531
 C       -2.053239276     1.889146313    -0.232661007
 C       -2.440349696     5.598325213    -0.026428299
 C       -1.829123994     6.778644192     0.167363693
 C       -2.531829180     8.057415389     0.132851218
 C       -3.907207813     8.138026586    -0.107733586
 C       -4.555729060     9.370290669    -0.135863429
 C       -3.836245427    10.552385941     0.063929813
 C       -2.457291427    10.477601646     0.299914288
 C       -1.813853335     9.242528127     0.334676342
Si       -4.684268705    12.182344844     0.028377775
 C       -3.905642209    13.345101733     1.202473615
 C       -3.305075829    12.955391488     2.334606872
 C       -2.676742713    13.874523238     3.285452515
 C       -2.078523510    13.343825497     4.438254077
 C       -1.470990834    14.173767159     5.367969648
 C       -1.465248620    15.563434010     5.164423059
 C       -2.070694417    16.101910279     4.023309874
 C       -2.674702165    15.258632215     3.097078657
 N       -0.817255024    16.354163385     6.170575366
 C        0.656675806    16.279629052     6.022255796
 C       -1.306650294    17.741277347     6.270750210
 C        1.151702684    16.628902154     4.608286475
 C        2.659543113    16.372898268     4.473956340
 N        3.147659019    16.531176941     3.098228406
 C        2.918596621    15.513680413     2.160207451
 C        2.403772818    14.252185464     2.522992766
 C        2.192533981    13.273503038     1.560700406
 C        2.490547323    13.501721561     0.211151515
 C        3.016345305    14.749818167    -0.142257353
 C        3.239611854    15.737119572     0.804510803
 C        3.081231364    17.917270270     2.606964280
 C        2.256174418    12.447752459    -0.781608353
 C        2.521735044    12.608212512    -2.084979574
Si        2.299465006    11.425674638    -3.456317939
 C        0.946696136    10.189933488    -3.324666289
 C       -0.336162563    10.549727614    -2.894780123
 C       -1.344388951     9.592120447    -2.803948856
 C       -1.107524811     8.261240200    -3.170682792
 C        0.170362555     7.908340800    -3.612377065
 C        1.185692260     8.858819185    -3.686244757
 C       -2.183369338     7.280320023    -3.064677830
 C       -2.045990242     5.979746637    -3.374815331
 C       -3.097169852     4.973689750    -3.281147677
 C       -4.392056855     5.266955987    -2.846959034
 C       -5.362472122     4.267048763    -2.775288223
 C       -5.053907740     2.948482428    -3.123625733
 C       -3.753387847     2.650874937    -3.553976390
 C       -2.789644818     3.651459090    -3.631947764
Si       -6.318094966     1.613152470    -3.036767641
 C       -7.997946425     2.290732791    -2.590213244
 C       -6.365001678     0.768703925    -4.742424966
 C       -5.838131894     0.298804846    -1.744651041
 C        1.949284724    12.458821516    -5.021901972
 C        3.974577034    10.542593270    -3.683820686
 C       -4.514382118    12.899218796    -1.726830526
 C       -6.528609109    11.996199262     0.443934943
 C       -0.674990323    -0.872811506    -1.554324339
 C       -0.625419520    -0.943721961     1.529714331
 H        1.191381826     2.742484495     0.421855330
 H        0.208090467     4.970061987     0.400827652
 H       -3.665658558     3.295694888    -0.437416586
 H       -2.729353600     1.048668688    -0.421307131
 H       -3.518144410     5.561610908    -0.227481092
 H       -0.755627177     6.837320787     0.356154127
 H       -4.489166590     7.231211015    -0.264433420
 H       -5.632797560     9.367205914    -0.322543355
 H       -1.845850299    11.373183489     0.459556040
 H       -0.740322253     9.201125302     0.512225576
 H       -3.975155994    14.407170721     0.923781088
 H       -3.228888569    11.900891904     2.636990856
 H       -2.084730859    12.266384506     4.604124844
 H       -1.009448822    13.761599260     6.263380258
 H       -2.069141400    17.174041663     3.850795627
 H       -3.140603508    15.690825276     2.211288530
 H       -0.913317667    18.180098663     7.204399596
 H       -2.407459799    17.733576871     6.353846004
 H       -1.021661526    18.394071183     5.432642165
 H        3.109410473    18.630694945     3.446235003
 H        2.174295109    18.118148068     2.012402610
 H        3.969425487    18.122187639     1.981072980
 H        2.145580091    14.037486564     3.555575999
 H        1.778232252    12.311285216     1.866432809
 H        3.264382384    14.959752543    -1.184322836
 H        3.664504223    16.684115286     0.488372882
 H        1.827438412    11.528916921    -0.365624771
 H        2.960707865    13.557020526    -2.445416370
 H       -0.576862837    11.575544532    -2.598105856
 H       -2.330915105     9.883783546    -2.441179619
 H        0.385636071     6.880540066    -3.899396875
 H        2.162442720     8.513056845    -4.035535875
 H       -3.135956640     7.676677519    -2.701279806
 H       -1.083440717     5.593419945    -3.725211582
 H       -4.656053676     6.286689815    -2.572414671
 H       -6.360228751     4.558165412    -2.436942971
 H       -3.453765618     1.638922066    -3.841608449
 H       -1.783052195     3.400896591    -3.962091108
 H        1.121795968    16.946267615     6.778446628
 H        0.957426437    15.240089031     6.289041025
 H        0.609004911    16.021934542     3.852176384
 H        0.913547614    17.678703305     4.364775215
 H        3.233296634    17.075701799     5.121802056
 H        2.922692101    15.352062542     4.835160373
 H        2.264417268    -1.028953660    -0.027287285
 H        2.272085182     0.491644198     0.900709363
 H        2.259869426     0.533592010    -0.883149493
 H       -8.755401211     1.487730702    -2.556835030
 H       -8.337305555     3.033101200    -3.334841551
 H       -7.990986091     2.782654629    -1.601842517
 H       -5.329316855     0.350532709    -4.907551288
 C       -7.364746856    -0.398127998    -4.824221805
 C       -6.658235968     1.760533489    -5.882422562
 H       -6.687964338    -0.444710606    -1.755306674
 C       -4.543449108    -0.462481220    -2.079391790
 C       -5.730224454     0.868735154    -0.319203560
 H        2.816625531    13.171949545    -5.124291263
 C        1.875858655    11.608202219    -6.301287765
 C        0.659190547    13.289204108    -4.897725548
 H        3.850921546     9.853047992    -4.567478882
 C        5.131807049    11.507657218    -3.998911906
 C        4.356844583     9.694865487    -2.457066450
 H       -5.119615050    13.850446326    -1.734562144
 C       -3.058151057    13.255255268    -2.075182966
 C       -5.073550440    11.965014167    -2.813913578
 H       -6.960559244    11.312027352    -0.342427850
 C       -6.756438432    11.347370263     1.821137258
 C       -7.300447502    13.326863680     0.387579996
 H       -1.787456159    -0.976217282    -1.387249105
 C       -0.470512347    -0.046439143    -2.837030472
 C       -0.100198629    -2.283888993    -1.765539404
 H       -0.144547234    -1.962845066     1.475738387
 C       -0.190185727    -0.279088196     2.848782547
 C       -2.152337394    -1.139698088     1.559663041
 H       -7.172223518    -1.188726815    -4.087719925
 H       -7.301675589    -0.877392008    -5.812144374
 H       -8.408235811    -0.077412773    -4.705853772
 H       -5.948701808     2.599878623    -5.919990064
 H       -7.669882126     2.184302781    -5.833686920
 H       -6.582315461     1.251808032    -6.853991231
 H       -4.594074366    -1.005643355    -3.031609584
 H       -4.341477794    -1.219157855    -1.307132852
 H       -3.658365227     0.190006260    -2.114920092
 H       -6.659311951     1.334924803     0.033097648
 H       -4.927534566     1.612216915    -0.211949615
 H       -5.503740869     0.063032351     0.393899961
 H        2.798696786    11.051536712    -6.508170852
 H        1.704103358    12.253815787    -7.174337409
 H        1.047276606    10.885190972    -6.287255364
 H        0.649813570    13.953148947    -4.022502191
 H       -0.245287470    12.665238719    -4.854677296
 H        0.542636585    13.936848888    -5.777987857
 H        4.974097851    12.092388019    -4.913955397
 H        6.060809313    10.940364311    -4.154431107
 H        5.336612353    12.211658734    -3.180226559
 H        3.596693708     8.951466687    -2.180569373
 H        4.557107117    10.306444215    -1.564894483
 H        5.279006592     9.132425723    -2.659028092
 H       -2.601390680    13.968097105    -1.374725348
 H       -3.011995685    13.725750791    -3.067474475
 H       -2.403774161    12.371906654    -2.121441266
 H       -6.139218161    11.737196265    -2.687506633
 H       -4.533174983    11.009199587    -2.878820492
 H       -4.977349340    12.437906776    -3.802229656
 H       -6.280188574    10.362630471     1.925807447
 H       -7.830635123    11.189244938     1.991549495
 H       -6.401575330    11.974347555     2.652151617
 H       -7.255442328    13.816348054    -0.593545364
 H       -6.959629244    14.051102429     1.140731305
 H       -8.366544969    13.151207242     0.592488143
 H       -0.924828116     0.954419038    -2.782142015
 H       -0.938514546    -0.554053856    -3.692049816
 H        0.587431730     0.086179570    -3.097957101
 H       -0.270270917    -2.955249669    -0.914076013
 H        0.977330240    -2.279928140    -1.976534558
 H       -0.580666340    -2.759797610    -2.632582079
 H        0.897786688    -0.173030453     2.946619013
 H       -0.516871914    -0.887914331     3.703781193
 H       -0.635330584     0.716346896     2.991652816
 H       -2.541191465    -1.677683506     0.686290727
 H       -2.701343360    -0.190915415     1.645263200
 H       -2.436093101    -1.737193137     2.438125408

