187   

Si        0.000000000     0.000000000     0.000000000
 C        1.865281614     0.000000000     0.000000000
 C       -0.682261483     1.709635228     0.000000000
 C        0.134477611     2.815966662    -0.253313297
 C       -0.396920485     4.105773416    -0.249955845
 C       -1.755219742     4.318236072    -0.001138497
 C       -2.573203811     3.208043176     0.249245985
 C       -2.045226110     1.920134685     0.250408198
 C       -2.355734294     5.647925044     0.012615640
 C       -1.687718792     6.793071827    -0.207084374
 C       -2.291857751     8.121248094    -0.192504331
 C       -1.478688496     9.235251848    -0.438136805
 C       -2.011905853    10.521983543    -0.434184423
 C       -3.372000597    10.725855345    -0.172414234
 C       -4.186293450     9.614225653     0.073130734
 C       -3.651828196     8.327003183     0.057173744
Si       -4.100926517    12.414761022    -0.161279587
 C       -5.501697488    12.550369531     1.006373409
 C       -5.616323939    11.833036487     2.132297488
 C       -6.737722713    11.942068337     3.066407856
 C       -6.744577759    11.135810953     4.213522532
 C       -7.782308460    11.200524326     5.129120627
 C       -8.837492039    12.121147955     4.952114076
 C       -8.830332555    12.930823729     3.800751112
 C       -7.806773917    12.819592736     2.868088567
 N       -9.887037626    12.177270950     5.890226222
 C       -9.540066776    11.880391098     7.292537698
 C      -10.826281955    13.305727359     5.768904955
 C       -8.517696128    12.865384897     7.881249042
 C       -8.093764041    12.427973457     9.292314514
 N       -7.086245759    13.321635638     9.894319716
 C       -7.472028148    14.664060298    10.084807576
 C       -8.796084319    14.960569244    10.473095586
 C       -9.194405988    16.273551444    10.665274474
 C       -8.287504084    17.334265125    10.529354115
 C       -6.969116613    17.036390359    10.174921522
 C       -6.558243059    15.726801881     9.960739099
 C       -5.735478735    13.089569464     9.353783796
 C       -8.759900017    18.703477601    10.743274866
 C       -7.981725955    19.788623185    10.639679964
Si       -8.511039809    21.519029354    10.893989114
 C       -7.959238355    22.546343041     9.471252198
 C       -7.701446382    21.948680138     8.231327533
 C       -7.283464048    22.720960315     7.150475442
 C       -7.124027907    24.106936614     7.278409575
 C       -7.388651924    24.700874953     8.515951316
 C       -7.802913820    23.930353184     9.601531298
 C       -6.683903532    24.872554993     6.116753599
 C       -6.488022789    26.202016669     6.105329945
 C       -6.047871791    26.966944912     4.943227115
 C       -5.783228015    26.373969244     3.706107906
 C       -5.364177142    27.143834977     2.620990086
 C       -5.193122168    28.525387336     2.752875315
 C       -5.456468910    29.122566556     3.993246383
 C       -5.880397463    28.352336840     5.072481280
Si       -4.640759922    29.555895848     1.331022954
 C       -4.014643515    28.504174284    -0.076731470
 C       -6.097641862    30.608953853     0.705166300
 C       -3.266975708    30.723990612     1.941181313
 C      -10.401109366    21.649681819    11.056283372
 C       -7.715145927    22.165280620    12.497089476
 C       -2.779808080    13.697746734     0.316665384
 C       -4.738079439    12.814667989    -1.908492417
 C       -0.607777190    -0.925248096    -1.548762410
 C       -0.657779554    -0.902268341     1.541727514
 H        1.204007104     2.712637838    -0.456056716
 H        0.260814964     4.950496203    -0.446338161
 H       -3.634108446     3.351420090     0.445673301
 H       -2.731520983     1.093372019     0.454634671
 H       -3.429815131     5.661800980     0.220927283
 H       -0.614192518     6.780168284    -0.416116610
 H       -0.417736353     9.097035236    -0.636719667
 H       -1.329581978    11.351564509    -0.638186654
 H       -5.257662881     9.713771636     0.279556801
 H       -4.306969754     7.478463358     0.246106784
 H       -6.261562813    13.294720529     0.724100489
 H       -4.866694463    11.090823658     2.442205833
 H       -5.926083517    10.435128308     4.385006040
 H       -7.773565510    10.535642459     5.987835574
 H       -9.625331418    13.647163407     3.620091743
 H       -7.836100177    13.446777364     1.975757654
 H      -11.597973129    13.237947489     6.554084672
 H      -11.352403555    13.237309468     4.799608766
 H      -10.340528486    14.292571548     5.844859092
 H       -5.544215272    12.005349949     9.282225378
 H       -4.987585251    13.498447934    10.056930966
 H       -5.574364712    13.535957143     8.358627105
 H       -9.514539003    14.159424741    10.620372745
 H      -10.228551939    16.480146826    10.942276784
 H       -6.241521244    17.842213812    10.061528752
 H       -5.525353842    15.542722473     9.682072740
 H       -9.826290874    18.758190459    10.997510770
 H       -6.910843996    19.696778163    10.390744741
 H       -7.813363730    20.870978719     8.072521659
 H       -7.081577140    22.239277075     6.195603658
 H       -7.272378876    25.775618820     8.641654789
 H       -7.993656266    24.449857201    10.544541726
 H       -6.514488111    24.277583587     5.214405600
 H       -6.657342363    26.797437642     7.007231069
 H       -5.904317227    25.299845216     3.578231999
 H       -5.174593150    26.623496994     1.678117615
 H       -5.339159239    30.197826076     4.155373828
 H       -6.081693391    28.834304330     6.027321106
 H      -10.476701356    11.885031693     7.894335266
 H       -9.156929416    10.835620179     7.344745713
 H       -7.631127675    12.934099428     7.220042264
 H       -8.940139786    13.888365436     7.909156077
 H       -8.975542907    12.382250633     9.970720035
 H       -7.676876386    11.395573501     9.272413412
 H        2.262722865    -1.029439612     0.052129881
 H        2.262169613     0.552956754     0.870698013
 H        2.274357279     0.468509057    -0.912274804
 H       -3.641207930    29.130695927    -0.906397663
 H       -4.807000222    27.851838139    -0.483654434
 H       -3.180636594    27.857741345     0.251809200
 H       -5.705124466    31.167968561    -0.193038824
 C       -7.292012114    29.750952145     0.249148170
 C       -6.597334313    31.644154500     1.728761806
 H       -3.733995696    31.352563759     2.754296751
 C       -2.078999443    29.963736725     2.558106802
 C       -2.742132883    31.676452345     0.852186705
 H      -10.693394894    20.928307521    11.873361486
 C      -10.882000769    23.053162623    11.466227673
 C      -11.131253130    21.235235829     9.765570715
 H       -8.088222641    23.222308700    12.626060736
 C       -8.129124292    21.359027280    13.740561858
 C       -6.178873481    22.210351535    12.415981795
 H       -1.971174561    13.622220334    -0.466366248
 C       -3.309655724    15.142793012     0.313300557
 C       -2.147986697    13.400906279     1.688579809
 H       -5.160918763    13.859197302    -1.855642190
 C       -3.628714868    12.800885742    -2.974429675
 C       -5.866052166    11.863959575    -2.347910163
 H       -0.103317862    -1.934147975    -1.517441790
 C       -2.129419370    -1.154962784    -1.575313670
 C       -0.192637741    -0.224053627    -2.855190044
 H       -1.782503652    -0.900780882     1.444354004
 C       -0.195421744    -2.366875413     1.640323307
 C       -0.298187374    -0.173547214     2.849266468
 H       -7.040178624    29.042146554    -0.550120434
 H       -8.087702476    30.395264226    -0.151607777
 H       -7.745420264    29.178227890     1.071000603
 H       -5.820418800    32.348137084     2.052664409
 H       -7.029725659    31.180865462     2.626803552
 H       -7.397431090    32.254359288     1.284760490
 H       -2.370807021    29.299506474     3.384246459
 H       -1.353227666    30.674805737     2.977964604
 H       -1.529744103    29.357971078     1.825272518
 H       -3.524974808    32.308391631     0.413244645
 H       -2.236539444    31.151345219     0.031012090
 H       -1.997934135    32.363152259     1.281449239
 H      -10.486185705    23.383778473    12.434932899
 H      -11.977298457    23.060924519    11.564757190
 H      -10.637825211    23.823996597    10.721598176
 H      -10.877612594    20.223033673     9.422422610
 H      -10.939246662    21.922587384     8.928859047
 H      -12.218235748    21.243793609     9.927183428
 H       -9.212473218    21.355644640    13.916597157
 H       -7.672658194    21.794561267    14.640917943
 H       -7.795119108    20.312048038    13.702722357
 H       -5.804104740    22.803997956    11.570241261
 H       -5.724567558    21.212227383    12.348349019
 H       -5.767198766    22.675261943    13.323118083
 H       -3.706659440    15.459335882    -0.659554093
 H       -2.495487034    15.841715500     0.553860043
 H       -4.091675289    15.312892749     1.066686454
 H       -1.692432799    12.403003923     1.753089160
 H       -2.865857699    13.489683026     2.516940485
 H       -1.344385624    14.120686114     1.898337395
 H       -2.828852172    13.526855738    -2.780711088
 H       -4.047925838    13.061618668    -3.957077142
 H       -3.162281648    11.812426588    -3.094253403
 H       -6.725932959    11.861102635    -1.664120732
 H       -5.528290130    10.823524167    -2.460267119
 H       -6.254290823    12.167821919    -3.330330785
 H       -2.500096770    -1.722899068    -0.712720161
 H       -2.405048541    -1.737629719    -2.466505539
 H       -2.701337950    -0.218273133    -1.634769762
 H        0.892659339    -0.095082889    -2.955929550
 H       -0.657697049     0.765086686    -2.975247851
 H       -0.512396790    -0.821074068    -3.721279732
 H       -0.478260860    -2.971903449     0.769243637
 H       -0.660085162    -2.848985908     2.512767381
 H        0.889557201    -2.465160920     1.777772296
 H       -0.649783706     0.867830263     2.876067665
 H        0.780758197    -0.163646973     3.052843798
 H       -0.769753441    -0.678645748     3.704256365

