187   

Si        0.000000000     0.000000000     0.000000000
 C        1.865233671     0.000000000     0.000000000
 C       -0.680061545     1.710708776     0.000000000
 C        0.130243601     2.810353068     0.299592070
 C       -0.396611199     4.101847957     0.296363259
 C       -1.743887100     4.323000618    -0.000636736
 C       -2.555493224     3.219738126    -0.297175866
 C       -2.032269740     1.929771854    -0.296376010
 C       -2.338605818     5.655396371    -0.016037082
 C       -1.674049538     6.793381872     0.247315516
 C       -2.269480192     8.125526362     0.231723733
 C       -3.617561575     8.344366904    -0.065682869
 C       -4.145992677     9.634825478    -0.069380519
 C       -3.330678015    10.735324325     0.211656459
 C       -1.978625793    10.520917044     0.509386819
 C       -1.457958720     9.229802643     0.524294673
Si       -4.005934198    12.446434000     0.212461660
 C       -2.649587181    13.621487286    -0.131860048
 C       -2.363461120    14.717587226     0.581372721
 C       -1.264275572    15.634214598     0.269316036
 C       -1.070058638    16.750197202     1.098073307
 C       -0.046692001    17.650171994     0.850691917
 C        0.842037820    17.421859425    -0.214007882
 C        0.663116969    16.306600873    -1.039278093
 C       -0.392513931    15.430639623    -0.801649333
 N        1.870835278    18.400582111    -0.400451297
 C        2.948388885    18.247928368     0.604400040
 C        2.384024254    18.506293075    -1.777590577
 C        3.797816067    16.970658037     0.440369912
 C        4.448773339    16.529836169     1.766265429
 N        3.774695298    15.403280263     2.444055609
 C        2.479043188    15.670593327     2.946302411
 C        2.296233616    16.811985725     3.754270456
 C        1.044527350    17.110705256     4.266512596
 C       -0.048831555    16.259753515     4.048415686
 C        0.146214556    15.107502353     3.282572053
 C        1.391904810    14.804157961     2.745558532
 C        3.941952886    14.130820852     1.720880474
 C       -1.347753122    16.627181569     4.614362137
 C       -2.465819027    15.901372605     4.477753412
Si       -4.078029187    16.382747153     5.195360608
 C       -3.881585571    17.354538646     6.743138005
 C       -2.800458305    17.093990908     7.595612992
 C       -2.637654824    17.821220776     8.771534980
 C       -3.556254358    18.816059154     9.132102453
 C       -4.638493446    19.067318788     8.284421163
 C       -4.801960964    18.343570119     7.103766121
 C       -3.343089394    19.551472663    10.374326331
 C       -4.143927351    20.529002139    10.831492424
 C       -3.931320997    21.264774592    12.073592822
 C       -2.850028233    21.015191418    12.922528533
 C       -2.685547298    21.743178421    14.100962105
 C       -3.605570632    22.733300991    14.459639236
 C       -4.691812901    22.984624374    13.610398704
 C       -4.849919833    22.260679897    12.432027878
Si       -3.402872775    23.702919166    16.011400681
 C       -2.135912390    22.931015004    17.142155660
 C       -2.845060711    25.472032344    15.584392561
 C       -5.092886907    23.795395904    16.882697661
 C       -5.012887005    17.415136249     3.895135775
 C       -5.082520457    14.810615824     5.553622752
 C       -5.380980362    12.660571320    -1.075080087
 C       -4.703649425    12.753690740     1.959291242
 C       -0.654833062    -0.904474045    -1.541899652
 C       -0.613879687    -0.922751651     1.547504293
 H        1.191505725     2.700282189     0.539114995
 H        0.255771554     4.941026507     0.530688726
 H       -3.607766258     3.369902352    -0.531168293
 H       -2.713472759     1.108492841    -0.536268850
 H       -3.403667993     5.677791019    -0.264983030
 H       -0.609115623     6.771342957     0.496518754
 H       -4.269423238     7.503636605    -0.295773994
 H       -5.208041212     9.744118515    -0.304524940
 H       -1.296433029    11.347104062     0.738034951
 H       -0.406653164     9.079647357     0.762535376
 H       -2.061131072    13.355566715    -1.026030193
 H       -2.931971680    15.014660242     1.473824885
 H       -1.741966253    16.924316343     1.942759457
 H        0.083287293    18.529364896     1.480337814
 H        1.338137874    16.118283242    -1.868140668
 H       -0.524853003    14.571794204    -1.459887878
 H        3.018528346    19.407332547    -1.843185165
 H        1.535067338    18.651972143    -2.468479045
 H        2.971524414    17.642231171    -2.120631155
 H        5.008616741    13.987531031     1.478098669
 H        3.361070978    14.063287076     0.787005404
 H        3.648557448    13.296902368     2.384096318
 H        3.139930933    17.460538014     3.974124458
 H        0.915593263    18.013021616     4.865689846
 H       -0.687897846    14.428769079     3.092122177
 H        1.496377106    13.907744529     2.141911669
 H       -1.318362804    17.571087020     5.178202307
 H       -2.474446508    14.959935524     3.907311494
 H       -2.054740322    16.324373477     7.368140061
 H       -1.787973048    17.609788053     9.418312553
 H       -5.367275871    19.833738846     8.541611912
 H       -5.668227416    18.585288683     6.482138656
 H       -2.455828657    19.249175840    10.938499419
 H       -5.031537807    20.830803697    10.267780763
 H       -2.122525817    20.246297876    12.668784790
 H       -1.819111332    21.503760275    14.723684057
 H       -5.442997481    23.745738327    13.839834109
 H       -5.698999731    22.471258499    11.784572330
 H        3.592132669    19.151984655     0.547668909
 H        2.469266582    18.262909677     1.612024482
 H        3.160730346    16.153286071     0.046828053
 H        4.576114788    17.132554662    -0.325187049
 H        5.504246544    16.221291646     1.584572970
 H        4.510883009    17.383518980     2.477216512
 H        2.262628048    -1.030133805    -0.036796284
 H        2.275387987     0.482248433     0.904551608
 H        2.261135223     0.539863363    -0.879363680
 H       -2.050284460    23.495282281    18.088026886
 H       -1.134327120    22.905898582    16.678315125
 H       -2.415036536    21.893028555    17.399363264
 H       -2.685952658    25.988533471    16.574964676
 C       -1.513540397    25.500423640    14.811759077
 C       -3.891811666    26.274838387    14.791504660
 H       -5.785451699    24.316072959    16.159059055
 C       -5.680704778    22.403452081    17.177175579
 C       -5.068744610    24.615538134    18.184725279
 H       -5.999662560    17.686316152     4.369466673
 C       -4.271438648    18.719091080     3.549608582
 C       -5.309505397    16.652906234     2.591901937
 H       -5.188887621    14.275907026     4.563629539
 C       -4.362834861    13.868205683     6.534326959
 C       -6.495525544    15.103493813     6.086234089
 H       -6.191497657    11.927264388    -0.793354312
 C       -5.994745100    14.072421703    -1.067735839
 C       -4.911910309    12.323155991    -2.501611894
 H       -4.888294401    13.864312613     2.035905003
 C       -6.035021669    12.032996064     2.228928685
 C       -3.690461342    12.350376432     3.046509116
 H       -1.779514804    -0.907044607    -1.444621752
 C       -0.297498214    -0.174555410    -2.849302076
 C       -0.187547193    -2.367507550    -1.640347874
 H       -0.119435835    -1.936496001     1.513730795
 C       -0.190903104    -0.228430211     2.855077553
 C       -2.137863646    -1.136309851     1.573569413
 H       -0.687377660    25.015495324    15.347523362
 H       -1.199550760    26.539955302    14.639793245
 H       -1.586059491    25.033067411    13.819107235
 H       -4.851741104    26.375211275    15.313601269
 H       -4.090565396    25.851137955    13.796984727
 H       -3.528294262    27.298599485    14.619879101
 H       -5.779538250    21.775577004    16.280023221
 H       -6.692581811    22.502026508    17.595446293
 H       -5.095593240    21.837175533    17.913884316
 H       -4.723814437    25.647828403    18.042307228
 H       -4.446556741    24.159698506    18.966336612
 H       -6.083613934    24.685887274    18.602620896
 H       -4.078466118    19.356691442     4.423239934
 H       -4.872896405    19.324290234     2.856893551
 H       -3.307598132    18.544768727     3.048977738
 H       -5.899053515    15.740089225     2.745176676
 H       -4.398440400    16.382855173     2.038360446
 H       -5.899257418    17.286022942     1.912925859
 H       -3.357566073    13.573681355     6.202128934
 H       -4.935128477    12.937277603     6.653821467
 H       -4.264302362    14.296520924     7.542399851
 H       -7.109405786    15.692516659     5.393070434
 H       -6.489740210    15.625565531     7.053892719
 H       -7.038335801    14.161642028     6.252222410
 H       -6.426553706    14.354549921    -0.098737160
 H       -6.814183732    14.130248216    -1.798174461
 H       -5.274770957    14.853234759    -1.352715066
 H       -4.497335457    11.309800046    -2.596851609
 H       -4.158851924    13.027201066    -2.882194790
 H       -5.759910072    12.373628489    -3.199423512
 H       -6.839767258    12.332962386     1.546055526
 H       -6.390823416    12.266537453     3.243318181
 H       -5.947735588    10.938598751     2.182403331
 H       -2.734449464    12.887176468     2.974167636
 H       -3.463870568    11.274084327     3.042535328
 H       -4.096629681    12.565854596     4.045875355
 H       -0.650615096     0.866340196    -2.875480254
 H       -0.768620502    -0.679850269    -3.704403884
 H        0.781333086    -0.162858674    -3.053550256
 H       -0.470561237    -2.973972828    -0.770292146
 H        0.898031010    -2.462356431    -1.775461661
 H       -0.648585576    -2.850602616    -2.514144185
 H        0.895538385    -0.107950984     2.954054088
 H       -0.513502931    -0.825545364     3.720064939
 H       -0.648478674     0.763749949     2.978732853
 H       -2.513947809    -1.701157124     0.711252886
 H       -2.699890455    -0.193420323     1.631109052
 H       -2.420514266    -1.715065171     2.465090595

