187   

Si        0.000000000     0.000000000     0.000000000
 C        1.865427305     0.000000000     0.000000000
 C       -0.680246402     1.710402489     0.000000000
 C        0.140627693     2.815698943    -0.244706307
 C       -0.387894219     4.106534965    -0.241766671
 C       -1.747400687     4.321510300    -0.001454756
 C       -2.569346340     3.212519225     0.240613370
 C       -2.044261140     1.923348571     0.242010959
 C       -2.344275177     5.652910950     0.011336939
 C       -1.670625412     6.796131508    -0.201408135
 C       -2.268944407     8.127002263    -0.188304268
 C       -1.447781640     9.237322343    -0.426406726
 C       -1.974251851    10.526390318    -0.423721558
 C       -3.340027042    10.733734703    -0.193733402
 C       -4.162469420     9.627234366     0.042967530
 C       -3.629810428     8.338657032     0.049591756
Si       -4.046164312    12.432432171    -0.187978472
 C       -5.848680009    12.348266285    -0.475796983
 C       -6.793333886    12.949598670     0.258911773
 C       -8.228663498    12.851029637    -0.013560367
 C       -9.126830977    13.525954972     0.826562747
 C      -10.493522293    13.463820999     0.610642255
 C      -11.014759835    12.674944503    -0.436782856
 C      -10.116622408    11.995988638    -1.278248850
 C       -8.746080456    12.105210042    -1.075373605
 N      -12.413650525    12.633965637    -0.629262449
 C      -13.219753295    12.474172595     0.599568723
 C      -12.896361367    11.792661790    -1.738407823
 C      -12.814399221    11.245026613     1.434228580
 C      -13.942552581    10.730840189     2.344050181
 N      -15.182349797    10.300033855     1.655621211
 C      -14.995600462     9.698371156     0.391036684
 C      -14.099503519     8.611498349     0.301975128
 C      -13.880871536     7.986876561    -0.913595459
 C      -14.564313951     8.395069113    -2.069618733
 C      -15.471643898     9.451623181    -1.970627903
 C      -15.700214277    10.092085886    -0.757487749
 C      -16.276350898    11.278341702     1.768848610
 C      -14.295666654     7.700176030    -3.330230812
 C      -14.888669747     8.005101080    -4.491327460
Si      -14.597269923     7.177874300    -6.094505586
 C      -14.268054982     8.456874140    -7.374789959
 C      -13.770749960     9.710684554    -6.997034398
 C      -13.518015631    10.686159251    -7.958085456
 C      -13.743392142    10.429671342    -9.316864943
 C      -14.232621597     9.174502368    -9.690025336
 C      -14.491549642     8.196563013    -8.730553625
 C      -13.463332430    11.484086087   -10.285997787
 C      -13.639816750    11.370007076   -11.613280732
 C      -13.359878988    12.424143128   -12.582626959
 C      -12.870872734    13.679251888   -12.211441187
 C      -12.617012367    14.658335974   -13.171988200
 C      -12.853909552    14.404482987   -14.526460579
 C      -13.345292776    13.146510742   -14.901221324
 C      -13.592189580    12.169426242   -13.941039988
Si      -12.524481279    15.685088208   -15.807298271
 C      -12.220308998    17.359227783   -15.042826793
 C      -10.991486362    15.190845030   -16.821657521
 C      -14.026200088    15.757406588   -16.974792032
 C      -13.111555978     5.995255899    -6.003411924
 C      -16.148085720     6.180017060    -6.558884260
 C       -3.648700153    13.267183568     1.473529854
 C       -3.258318599    13.451471111    -1.588788408
 C       -0.606830659    -0.926073744    -1.548538330
 C       -0.658804584    -0.900928186     1.542004686
 H        1.211343625     2.710582639    -0.440223317
 H        0.273244610     4.950197116    -0.431295852
 H       -3.631082442     3.357865787     0.430689395
 H       -2.733703051     1.097716506     0.439814427
 H       -3.419417595     5.670005479     0.212946686
 H       -0.595629180     6.779529827    -0.403135986
 H       -0.385582336     9.093679507    -0.614129686
 H       -1.285455101    11.354539335    -0.611390436
 H       -5.236304697     9.731790932     0.230526136
 H       -4.288694855     7.493550914     0.240018393
 H       -6.117133069    11.740564734    -1.356664310
 H       -6.561165188    13.568164304     1.135498404
 H       -8.745283169    14.121718182     1.655942807
 H      -11.165860156    14.027178213     1.251591960
 H      -10.477642769    11.377808156    -2.094976485
 H       -8.069743368    11.580401986    -1.752165750
 H      -13.989525423    11.908516463    -1.843703982
 H      -12.689495852    10.716647988    -1.608252838
 H      -12.444091420    12.138912264    -2.684507961
 H      -16.462798410    11.478004473     2.839479204
 H      -17.206860212    10.840646767     1.364992259
 H      -16.085219144    12.238488184     1.264491827
 H      -13.586507111     8.263980019     1.195883250
 H      -13.176073288     7.156323088    -0.968137980
 H      -16.020983261     9.783117234    -2.853563454
 H      -16.413936968    10.908961409    -0.719328777
 H      -13.553156669     6.897622071    -3.232866985
 H      -15.638981249     8.811717529    -4.552211630
 H      -13.570766916     9.964720989    -5.950674990
 H      -13.137349260    11.657401864    -7.646943331
 H      -14.415664701     8.949848342   -10.739125578
 H      -14.873912038     7.234311713    -9.081634233
 H      -13.084368467    12.414503999    -9.852735676
 H      -14.018322681    10.439487619   -12.046363108
 H      -12.681700632    13.903767796   -11.163242901
 H      -12.233554891    15.620418918   -12.820817807
 H      -13.549975060    12.891648968   -15.944931341
 H      -13.971879570    11.197975017   -14.251688045
 H      -13.124282894    13.404294530     1.202263223
 H      -14.289377349    12.413484392     0.299728828
 H      -12.473224915    10.434340091     0.758197489
 H      -11.926654351    11.487379057     2.050855367
 H      -13.574690556     9.842250196     2.912983913
 H      -14.193769837    11.501046662     3.104927414
 H        2.263068151    -1.029715392     0.043678137
 H        2.262134297     0.545881772     0.875250809
 H        2.274365700     0.476034294    -0.908426388
 H      -12.061897697    18.128426921   -15.819752254
 H      -11.328570974    17.355968359   -14.391713524
 H      -13.083843136    17.678603991   -14.431488403
 H      -10.811807892    16.045198836   -17.536618952
 C       -9.734331501    15.026828766   -15.947858577
 C      -11.184890039    13.909122982   -17.651484278
 H      -14.116943275    14.726333409   -17.425439338
 C      -15.338134672    16.061533683   -16.228965619
 C      -13.860044226    16.762654447   -18.128215397
 H      -13.321223076     5.297825058    -5.141366825
 C      -12.934559771     5.143099041    -7.272734319
 C      -11.790985022     6.732915302    -5.715216561
 H      -15.910614212     5.675649100    -7.540165549
 C      -16.489601557     5.086067201    -5.532094278
 C      -17.383416668     7.073218013    -6.770985052
 H       -4.187240372    14.258850450     1.458824141
 C       -4.166596152    12.456543963     2.675828650
 C       -2.148063335    13.544165160     1.674776501
 H       -2.155376291    13.500299733    -1.356065532
 C       -3.424083746    12.785505916    -2.966355609
 C       -3.794753497    14.891899548    -1.659173452
 H       -0.100699991    -1.934145137    -1.517226896
 C       -2.128064154    -1.158436595    -1.575378945
 C       -0.192707505    -0.224234682    -2.854987047
 H       -1.783549277    -0.896705240     1.445085894
 C       -0.199886902    -2.366636383     1.640312797
 C       -0.296769921    -0.172840854     2.849208431
 H       -9.475558366    15.930254904   -15.380724329
 H       -8.863336013    14.801066424   -16.579706269
 H       -9.817669345    14.196867282   -15.231395175
 H      -12.020706381    13.969637795   -18.359824018
 H      -11.333638629    13.016083364   -17.028287767
 H      -10.286221889    13.713913466   -18.254807157
 H      -15.554629090    15.345837774   -15.422901810
 H      -16.188290471    16.007113248   -16.923778240
 H      -15.360312306    17.068595463   -15.791866621
 H      -12.980085876    16.565021245   -18.753912079
 H      -13.798773229    17.803519381   -17.783803613
 H      -14.730676295    16.712044442   -18.798223738
 H      -13.798438954     4.502851741    -7.491959790
 H      -12.075225354     4.466884726    -7.154199668
 H      -12.726215594     5.745774926    -8.168181312
 H      -11.815637739     7.340912304    -4.800608106
 H      -11.484331049     7.392902249    -6.539803084
 H      -10.975343980     6.008056092    -5.582938252
 H      -15.683803887     4.354297875    -5.390596892
 H      -17.367158273     4.515247502    -5.868022605
 H      -16.747754907     5.492046585    -4.543454055
 H      -17.229814648     7.857894041    -7.525227988
 H      -17.722280051     7.562037813    -5.847317593
 H      -18.229267384     6.467775910    -7.126768760
 H       -5.244547091    12.248876484     2.634832943
 H       -3.993833801    13.011819668     3.608349249
 H       -3.651588782    11.491885383     2.792124541
 H       -1.719704719    14.202549752     0.908401907
 H       -1.543969409    12.626473117     1.706891773
 H       -1.985502805    14.049764539     2.637821243
 H       -3.026253635    11.761660870    -3.006321345
 H       -2.876782081    13.356891625    -3.729521542
 H       -4.470050664    12.748688782    -3.300829172
 H       -3.630455243    15.463435681    -0.736687974
 H       -4.868472512    14.937864460    -1.892072448
 H       -3.283148938    15.445606426    -2.459358465
 H       -2.498316763    -1.724907323    -0.711644784
 H       -2.402153962    -1.743652375    -2.465349709
 H       -2.701392356    -0.222800566    -1.637359081
 H        0.892301583    -0.091989742    -2.954849769
 H       -0.660550273     0.763510076    -2.975753785
 H       -0.509910946    -0.822510357    -3.721107624
 H       -0.484707391    -2.970931631     0.769381522
 H       -0.665132163    -2.847646111     2.513037756
 H        0.884957564    -2.467445770     1.777032804
 H       -0.644614631     0.869850647     2.875537324
 H        0.782191819    -0.166719335     3.052880209
 H       -0.770247075    -0.675725171     3.704445977

