187   

Si        0.000000000     0.000000000     0.000000000
 C        1.865274193     0.000000000     0.000000000
 C       -0.674122604     1.713110954     0.000000000
 C        0.117646778     2.796912362     0.393213730
 C       -0.400348990     4.091863054     0.390495211
 C       -1.720619855     4.332677296     0.001528731
 C       -2.514247589     3.245065412    -0.386987405
 C       -1.999947786     1.951393672    -0.386093298
 C       -2.304935117     5.669573570    -0.017001340
 C       -1.655278369     6.793808372     0.329560218
 C       -2.240388180     8.130359389     0.310734861
 C       -1.447817907     9.218573191     0.698157502
 C       -1.963249437    10.512608874     0.696138588
 C       -3.281728407    10.750481338     0.290776019
 C       -4.074907299     9.664786651    -0.099011323
 C       -3.560060179     8.369643101    -0.083498315
Si       -3.992739707    12.447106602     0.276472008
 C       -5.186845507    12.671407627    -1.089356216
 C       -5.117827638    12.025912034    -2.261684425
 C       -6.071956616    12.203270985    -3.356714068
 C       -5.891276006    11.467874167    -4.537671647
 C       -6.764760495    11.597997876    -5.603933790
 C       -7.836628360    12.516757388    -5.541556424
 C       -8.018497516    13.255888620    -4.356875935
 C       -7.158613523    13.078322035    -3.280633116
 N       -8.708525415    12.631740681    -6.632795390
 C       -8.135023832    12.522700097    -7.984156431
 C       -9.821936622    13.581844509    -6.515873597
 C       -6.895351433    13.394479089    -8.258251625
 C       -7.195407823    14.887920638    -8.476078078
 N       -7.968186284    15.233612756    -9.686471493
 C       -9.376864954    15.193226708    -9.527624651
 C       -9.945834620    16.094712299    -8.604990142
 C      -11.315461653    16.108973375    -8.400479096
 C      -12.162221311    15.256362085    -9.125620487
 C      -11.595428192    14.386411009   -10.059832125
 C      -10.221303815    14.358608858   -10.273856736
 C       -7.439397766    14.630392613   -10.918884244
 C      -13.603558517    15.312237776    -8.870001109
 C      -14.505199198    14.548488921    -9.499666258
Si      -16.312227343    14.574532164    -9.222697871
 C      -16.913792156    12.857017048    -8.959308500
 C      -16.034835430    11.866756441    -8.507423773
 C      -16.483651690    10.562260635    -8.305393512
 C      -17.819393329    10.222581725    -8.537235575
 C      -18.698721131    11.218531262    -8.982828310
 C      -18.253176330    12.521256356    -9.191225267
 C      -18.333342877     8.871320309    -8.339407892
 C      -17.599936443     7.827362631    -7.917205354
 C      -18.114723354     6.476390916    -7.719645862
 C      -19.448856331     6.136000966    -7.956855170
 C      -19.898956279     4.831342704    -7.754860003
 C      -19.023559850     3.838546920    -7.303913052
 C      -17.684900362     4.177721867    -7.064206531
 C      -17.237437571     5.479383970    -7.271904652
Si      -19.601481833     2.112006525    -7.032273638
 C      -21.463097632     1.997848141    -7.065174207
 C      -18.897462809     0.984044279    -8.394360245
 C      -18.935015914     1.519143257    -5.350677832
 C      -16.766054511    15.629509279    -7.707551065
 C      -17.147755810    15.320236563   -10.760369676
 C       -4.902533283    12.740233263     1.921510488
 C       -2.610369201    13.743037094     0.104237038
 C       -0.651997321    -0.909559828    -1.540255748
 C       -0.624448720    -0.915722408     1.547242623
 H        1.157627246     2.671524804     0.707027432
 H        0.237818261     4.918360685     0.697856240
 H       -3.545676956     3.410369914    -0.692779620
 H       -2.667034911     1.143032940    -0.698214727
 H       -3.348612256     5.707952557    -0.342999604
 H       -0.611945660     6.755352079     0.656000044
 H       -0.417746365     9.054157614     1.007952948
 H       -1.299849664    11.320455040     1.016278991
 H       -5.113256600     9.792162906    -0.424721939
 H       -4.198037542     7.541564628    -0.386973427
 H       -5.981231740    13.405396877    -0.887524251
 H       -4.329319450    11.294431352    -2.490561480
 H       -5.056702630    10.769428639    -4.614561091
 H       -6.625610292    10.985147032    -6.489477916
 H       -8.830814830    13.969447055    -4.267496654
 H       -7.330985114    13.650612518    -2.367986962
 H      -10.469235324    13.518856406    -7.410613486
 H       -9.501208941    14.630510381    -6.404818083
 H      -10.449247781    13.302669382    -5.649507679
 H       -6.364440141    14.869587057   -10.999658025
 H       -7.940892489    15.091167242   -11.789071152
 H       -7.559524733    13.537702128   -10.981929024
 H       -9.301647812    16.785501515    -8.064099565
 H      -11.741026169    16.805895182    -7.677794796
 H      -12.233752833    13.716923559   -10.638704404
 H       -9.812744414    13.674616281   -11.011742907
 H      -13.878512983    16.047568452    -8.102684009
 H      -14.196670861    13.824751896   -10.273215073
 H      -14.979425684    12.075883876    -8.303176841
 H      -15.780142353     9.806808749    -7.959734632
 H      -19.742723848    10.974113198    -9.168970716
 H      -18.983571551    13.255911201    -9.540739900
 H      -19.397064258     8.749472847    -8.563813371
 H      -16.536162746     7.949157981    -7.691957825
 H      -20.151822630     6.890858826    -8.304336701
 H      -20.953413930     4.625635889    -7.958610919
 H      -16.955624338     3.443656971    -6.709738395
 H      -16.193877806     5.723245155    -7.081228438
 H       -7.869923794    11.448766926    -8.141284485
 H       -8.930885202    12.746135337    -8.730750682
 H       -6.182136845    13.304025692    -7.411133625
 H       -6.355532820    12.985431827    -9.132700855
 H       -7.715723790    15.296108958    -7.580988593
 H       -6.229919942    15.444579491    -8.551615705
 H        2.263228166    -1.029297331    -0.049671696
 H        2.276239103     0.471564541     0.909681274
 H        2.259690353     0.551160969    -0.873106467
 H      -21.802255660     0.967290529    -6.857159792
 H      -21.873780685     2.290923520    -8.047209945
 H      -21.914253671     2.655850378    -6.300363131
 H      -19.341115732    -0.035872097    -8.203811248
 C      -19.318451253     1.431436369    -9.806267914
 C      -17.364614062     0.850667511    -8.356615492
 H      -17.810017306     1.574600186    -5.427025465
 C      -19.372963659     2.429855029    -4.189364602
 C      -19.313514103     0.064926366    -5.018286418
 H      -16.293570791    16.639911444    -7.878595153
 C      -18.282421307    15.835566926    -7.542648992
 C      -16.201193151    15.049227897    -6.397993106
 H      -18.253018843    15.342712147   -10.533416559
 C      -16.692691883    16.760608896   -11.053293354
 C      -16.938964088    14.461155425   -12.020075398
 H       -5.306492771    13.792290594     1.871288954
 C       -6.091193291    11.780435034     2.109039940
 C       -3.980025860    12.639796101     3.148772384
 H       -1.929075984    13.594912075     0.991145375
 C       -1.780542923    13.544428702    -1.176964237
 C       -3.129387878    15.191641144     0.142029233
 H       -1.776675684    -0.916659419    -1.443377019
 C       -0.296578465    -0.181543483    -2.849271734
 C       -0.179939457    -2.371404737    -1.635558817
 H       -0.148030478    -1.937761376     1.512101576
 C       -0.189187869    -0.230722908     2.855613361
 C       -2.152215146    -1.101920781     1.572226997
 H      -20.406423372     1.474590111    -9.944569871
 H      -18.942041179     0.719667389   -10.554941343
 H      -18.908833218     2.413689754   -10.082759138
 H      -16.983966637     0.459082237    -7.404816671
 H      -16.848708309     1.799041740    -8.562718794
 H      -17.030374037     0.146565373    -9.132626658
 H      -19.084315543     3.481420686    -4.330194048
 H      -18.896244278     2.103734506    -3.253928447
 H      -20.455814770     2.405541327    -4.009080175
 H      -18.970197874    -0.656822690    -5.770635555
 H      -20.394434374    -0.077114787    -4.887260366
 H      -18.847259020    -0.236280808    -4.068796928
 H      -18.749081306    16.342365690    -8.396894458
 H      -18.482190986    16.468389617    -6.665515511
 H      -18.826341034    14.895994418    -7.370124741
 H      -15.112235257    14.906080772    -6.412594866
 H      -16.654994278    14.083751976    -6.130281822
 H      -16.412668802    15.730022133    -5.561435145
 H      -16.890427222    17.456529345   -10.227808984
 H      -17.233769689    17.156371769   -11.924799220
 H      -15.623241639    16.830678084   -11.298582713
 H      -17.277128021    13.422105232   -11.900529055
 H      -15.891777516    14.433491640   -12.351075675
 H      -17.515889635    14.876295821   -12.858837809
 H       -6.826806597    11.832314435     1.294647557
 H       -6.634582391    12.028525858     3.031686175
 H       -5.780359193    10.730402774     2.208983199
 H       -3.154815196    13.363044426     3.134418674
 H       -3.544970381    11.638095205     3.276372218
 H       -4.550977745    12.843907569     4.066153263
 H       -1.325531299    12.547134842    -1.253158443
 H       -0.951139810    14.264775852    -1.205758131
 H       -2.365336407    13.709990481    -2.093535413
 H       -3.669538227    15.437475906     1.065105371
 H       -3.786383917    15.431806084    -0.705630715
 H       -2.285610640    15.894325014     0.084597438
 H       -0.651232260     0.858773721    -2.877427699
 H       -0.766839047    -0.689464938    -3.703223760
 H        0.782229742    -0.168256839    -3.053683853
 H       -0.463013927    -2.977390123    -0.765217949
 H        0.906155752    -2.463313599    -1.768319519
 H       -0.637834211    -2.857035184    -2.509605695
 H        0.899299338    -0.131845750     2.955513044
 H       -0.524166257    -0.822277698     3.719775331
 H       -0.627694383     0.769969138     2.979942606
 H       -2.536075297    -1.669303381     0.715020732
 H       -2.697935157    -0.148690921     1.617567510
 H       -2.447227975    -1.665825715     2.469162781

