187   

Si        0.000000000     0.000000000     0.000000000
 C        1.865189108     0.000000000     0.000000000
 C       -0.675098245     1.712628124     0.000000000
 C        0.074440606     2.775555453     0.515146058
 C       -0.439194442     4.072173607     0.514033738
 C       -1.713422890     4.335469515     0.004371323
 C       -2.465517608     3.268601509    -0.505035724
 C       -1.955974946     1.972973198    -0.504366845
 C       -2.292637070     5.674402773    -0.018034157
 C       -1.682664084     6.781785622     0.437640843
 C       -2.266290180     8.119061447     0.413029751
 C       -1.520572543     9.190424641     0.921631499
 C       -2.037536529    10.483792329     0.918511720
 C       -3.308008550    10.738807642     0.389037857
 C       -4.053359781     9.670184029    -0.122810343
 C       -3.539051872     8.374904171    -0.105365310
Si       -4.017264495    12.433059746     0.370442758
 C       -5.079054098    12.731364755    -1.088431886
 C       -4.908945097    12.144161773    -2.280606421
 C       -5.761899556    12.386684327    -3.444909889
 C       -5.487074562    11.713321521    -4.643196526
 C       -6.265976968    11.909793863    -5.772489363
 C       -7.342981784    12.822246204    -5.750263785
 C       -7.638575385    13.471766954    -4.537397451
 C       -6.885743534    13.215625047    -3.398850858
 N       -8.130808554    13.016512666    -6.903511203
 C       -7.439879370    12.884583446    -8.204597491
 C       -9.062245096    14.159023670    -6.864497718
 C       -6.139543436    13.696903217    -8.359567009
 C       -6.364663120    15.152505867    -8.814689239
 N       -5.531260192    16.166836072    -8.124789884
 C       -5.979427682    16.380191565    -6.776613228
 C       -6.989911966    17.339782339    -6.608341012
 C       -7.482663939    17.610001458    -5.339895080
 C       -7.021165176    16.897064655    -4.223945433
 C       -6.002387080    15.956635958    -4.402496033
 C       -5.451799531    15.726487706    -5.658977440
 C       -4.085660883    15.903902178    -8.241668915
 C       -7.570049335    17.216341678    -2.902567331
 C       -7.200641003    16.598625133    -1.773605993
Si       -7.841884915    16.945108900    -0.097026089
 C       -6.402486065    17.165040463     1.024912330
 C       -5.345454349    18.002519616     0.645547778
 C       -4.249524024    18.177391610     1.486561207
 C       -4.180035443    17.518043785     2.721439788
 C       -5.235780407    16.682272344     3.095297733
 C       -6.336116386    16.507518956     2.257266286
 C       -3.012589121    17.731243047     3.569898824
 C       -2.832155423    17.160247287     4.772907894
 C       -1.667810465    17.368577701     5.626748945
 C       -0.606236292    18.201371847     5.264300843
 C        0.488076239    18.371509906     6.112329717
 C        0.547915987    17.703308098     7.339233478
 C       -0.514787161    16.865274463     7.703752941
 C       -1.608560392    16.702680481     6.858439726
Si        1.984864385    17.916612421     8.470392938
 C        3.411290352    18.762065205     7.616189726
 C        1.460992422    18.965889989     9.969633656
 C        2.514628476    16.196414112     9.089986234
 C       -8.878896327    18.541690014    -0.069986191
 C       -8.986497743    15.523982115     0.439699086
 C       -5.022527875    12.747881678     1.951614221
 C       -2.618423248    13.725899026     0.299021948
 C       -0.646272528    -0.921850356    -1.535694720
 C       -0.629105058    -0.908629222     1.549620993
 H        1.077625220     2.631869658     0.925906632
 H        0.165573794     4.882415417     0.917240599
 H       -3.460973814     3.451403111    -0.905413227
 H       -2.590606909     1.181489575    -0.912355519
 H       -3.298099201     5.729831847    -0.445905127
 H       -0.677701662     6.728145856     0.866047123
 H       -0.527170154     9.012779784     1.328709770
 H       -1.414086514    11.278419941     1.338195775
 H       -5.052955614     9.811118218    -0.548160682
 H       -4.140023207     7.560174036    -0.504929835
 H       -5.876930851    13.472192133    -0.924164307
 H       -4.110733598    11.414419073    -2.474397473
 H       -4.645722389    11.020998093    -4.692250352
 H       -6.045104999    11.347792843    -6.674900654
 H       -8.466419883    14.171725359    -4.466759319
 H       -7.170438811    13.700158323    -2.462476039
 H       -9.600514157    14.242638093    -7.821863190
 H       -8.565886168    15.123785422    -6.655662456
 H       -9.824018206    13.975257348    -6.085037876
 H       -3.809108022    15.956463134    -9.308808204
 H       -3.754641819    14.932575927    -7.844777764
 H       -3.532018667    16.702104836    -7.716543635
 H       -7.362892142    17.877784869    -7.478285562
 H       -8.246384555    18.376586603    -5.215656312
 H       -5.598789071    15.412098248    -3.544909927
 H       -4.638702797    15.012398653    -5.765136422
 H       -8.323752715    18.012804192    -2.928654513
 H       -6.436639996    15.800184726    -1.787541968
 H       -5.341027856    18.533060701    -0.312406329
 H       -3.437680069    18.833282169     1.178041051
 H       -5.206213336    16.156518197     4.047881074
 H       -7.132052671    15.843929388     2.607092078
 H       -2.261611104    18.409887786     3.155877051
 H       -3.585008811    16.481748271     5.185483745
 H       -0.625838815    18.728599742     4.312196642
 H        1.287256984    19.037665552     5.775462764
 H       -0.521883161    16.316479584     8.649863720
 H       -2.424758799    16.048552215     7.159503581
 H       -7.216800011    11.798741848    -8.340929625
 H       -8.155553416    13.142191030    -9.015420883
 H       -5.585928719    13.687709686    -7.397390002
 H       -5.474202841    13.182883173    -9.077089985
 H       -6.154647037    15.250091706    -9.903028670
 H       -7.429092157    15.445663614    -8.678540374
 H        2.263145784    -1.028977195    -0.054167813
 H        2.277119884     0.468514912     0.910706702
 H        2.258800434     0.555332251    -0.870973978
 H        4.283102685    18.849234990     8.289157182
 H        3.144397456    19.780801916     7.284613385
 H        3.734972660    18.191428154     6.726783385
 H        2.396397900    19.105852578    10.585108788
 C        0.944328157    20.358104051     9.562732586
 C        0.402994369    18.288402540    10.858713302
 H        1.620307922    15.775364583     9.635303316
 C        2.857885381    15.235382044     7.937428588
 C        3.693517508    16.235949088    10.078501727
 H       -9.693998590    18.392436721    -0.835923997
 C       -9.546498076    18.800646867     1.292439351
 C       -8.074500158    19.792081384    -0.467967049
 H       -9.304199763    15.772116989     1.494116748
 C      -10.255629076    15.427418161    -0.428059049
 C       -8.306578801    14.145852376     0.459572108
 H       -5.466702983    13.781084618     1.832483932
 C       -6.173653245    11.741957791     2.126814316
 C       -4.163323499    12.753858465     3.228076515
 H       -2.029187056    13.605660597     1.252844106
 C       -1.666393212    13.496413803    -0.888579764
 C       -3.144888467    15.168575375     0.239605062
 H       -1.771448679    -0.926353003    -1.444831716
 C       -0.281714628    -0.207620215    -2.849824755
 C       -0.176961936    -2.385687263    -1.615009241
 H       -0.160957254    -1.934449961     1.516720922
 C       -0.188704730    -0.224448847     2.856684708
 C       -2.158523467    -1.081411312     1.573335966
 H        1.674580197    20.945056774     8.990920677
 H        0.709621730    20.949724656    10.459308985
 H        0.017676938    20.314050773     8.972533775
 H        0.725545606    17.319127498    11.259473460
 H       -0.555632059    18.138765301    10.342345705
 H        0.184154466    18.922391208    11.730491258
 H        2.037175824    15.111988383     7.216386032
 H        3.071272624    14.232287466     8.333625680
 H        3.749502255    15.541184655     7.374180140
 H        3.495800509    16.849404972    10.967038745
 H        4.623659143    16.598933956     9.621482271
 H        3.908066015    15.222102461    10.446931881
 H      -10.225681558    17.997883995     1.606512637
 H      -10.155884850    19.715006553     1.245042832
 H       -8.820346648    18.960155869     2.102299161
 H       -7.574994088    19.703932945    -1.442166136
 H       -7.308719569    20.058013781     0.275003833
 H       -8.743127354    20.661553425    -0.542240841
 H      -10.873039436    16.333915886    -0.403540197
 H      -10.898722697    14.613237581    -0.063778041
 H      -10.039285297    15.198759629    -1.481674103
 H       -7.386667323    14.118836121     1.059927852
 H       -8.064766229    13.775832145    -0.547056005
 H       -8.980840499    13.398708640     0.902799046
 H       -6.856336094    11.701888428     1.267045701
 H       -6.785573645    12.015025538     2.997748439
 H       -5.818203138    10.718078616     2.311621384
 H       -3.388395711    13.532640168     3.224976202
 H       -3.669473608    11.791165160     3.418956431
 H       -4.794448558    12.953651643     4.105678904
 H       -1.203276257    12.500723272    -0.893336971
 H       -0.840085592    14.220104925    -0.852793280
 H       -2.158623867    13.636844418    -1.862006075
 H       -3.799899999    15.433270328     1.083031800
 H       -3.694017573    15.389085362    -0.686545070
 H       -2.306609445    15.878444278     0.278089289
 H       -0.630556547     0.834228140    -2.889635027
 H       -0.750200896    -0.721398515    -3.701221025
 H        0.798183300    -0.201537072    -3.049138162
 H       -0.465825336    -2.982946139    -0.740556085
 H        0.909574814    -2.481181375    -1.741377083
 H       -0.631564686    -2.878414516    -2.486767624
 H        0.900559654    -0.135636097     2.957106654
 H       -0.529830268    -0.810880358     3.721912303
 H       -0.618452849     0.780400110     2.978204109
 H       -2.545600164    -1.652012003     0.719680176
 H       -2.696217717    -0.123111810     1.609132950
 H       -2.460345952    -1.635477983     2.474028984

