187   

Si        0.000000000     0.000000000     0.000000000
 C        1.865640842     0.000000000     0.000000000
 C       -0.680265452     1.710353992     0.000000000
 C        0.154151791     2.823058685    -0.144338043
 C       -0.376598726     4.113093114    -0.142341879
 C       -1.751278284     4.320050814    -0.003057625
 C       -2.586476499     3.203822791     0.140789672
 C       -2.059287848     1.915597330     0.145019374
 C       -2.351080991     5.650198405     0.004663420
 C       -1.665669363     6.799544880    -0.118377949
 C       -2.266538669     8.129330886    -0.110526492
 C       -1.431979049     9.246361368    -0.248257748
 C       -1.960242561    10.535046141    -0.246471840
 C       -3.340307485    10.734236179    -0.124682050
 C       -4.177121881     9.620783913     0.009433460
 C       -3.643223827     8.333082281     0.021432598
Si       -4.062825181    12.422170867    -0.119479865
 C       -5.742912381    12.381158409    -0.837365420
 C       -6.845253922    12.910575023    -0.293082362
 C       -8.172278717    12.849490594    -0.912468349
 C       -9.254355407    13.442617471    -0.244156881
 C      -10.528364840    13.410537383    -0.790318370
 C      -10.744812036    12.764552115    -2.017282402
 C       -9.676655134    12.155968019    -2.683062064
 C       -8.402560347    12.194118417    -2.124600741
 N      -12.098187692    12.783748743    -2.503135177
 C      -12.343918999    13.957871166    -3.370063466
 C      -12.529731499    11.510345026    -3.106392431
 C      -11.775996628    13.848786500    -4.799117762
 C      -11.488872481    15.230443656    -5.417605184
 N      -10.085276162    15.677847323    -5.312061769
 C       -9.635943079    15.977456088    -4.001546361
 C      -10.370023644    16.917460759    -3.250382450
 C       -9.972281235    17.244791189    -1.964648939
 C       -8.820498334    16.678820132    -1.398046981
 C       -8.078197776    15.773204397    -2.158931830
 C       -8.465142268    15.434365611    -3.450596312
 C       -9.169843845    14.875872038    -6.141525554
 C       -8.448014958    17.061346844    -0.035527191
 C       -7.374496512    16.592682540     0.615282441
Si       -6.935048203    17.090228358     2.319191178
 C       -7.491059820    18.804584730     2.684452308
 C       -7.469160068    19.766225337     1.667021108
 C       -7.885056563    21.072565369     1.916843401
 C       -8.321591305    21.452087779     3.189501414
 C       -8.335234842    20.490622597     4.208061764
 C       -7.922976284    19.183204017     3.960500743
 C       -8.765709617    22.807797514     3.496296182
 C       -8.800674585    23.818336283     2.611218646
 C       -9.244177628    25.174864074     2.914875988
 C       -9.684189516    25.558301132     4.184333308
 C      -10.099499945    26.867035152     4.430018959
 C      -10.088944251    27.820458163     3.407065350
 C       -9.648538807    27.438067083     2.132636546
 C       -9.229756657    26.132577170     1.891832149
Si      -10.633898056    29.551750155     3.714994242
 C      -11.536798828    29.707852416     5.339782581
 C       -9.113574838    30.696916121     3.746365536
 C      -11.764071104    30.086632263     2.279715435
 C       -7.763619679    15.886866890     3.540774117
 C       -5.048094251    16.959340406     2.504384898
 C       -4.105846775    13.047003966     1.677306212
 C       -3.027187204    13.635059489    -1.154758606
 C       -0.594757238    -0.932429882    -1.549801132
 C       -0.664728243    -0.894941166     1.542577330
 H        1.237074148     2.724409445    -0.259670464
 H        0.295330116     4.962276707    -0.252887504
 H       -3.660224506     3.342819628     0.252385182
 H       -2.759452686     1.084158706     0.266989127
 H       -3.438825115     5.660631434     0.121928380
 H       -0.578093337     6.789517524    -0.235404323
 H       -0.357597193     9.108953327    -0.354383807
 H       -1.260558729    11.368750622    -0.349670865
 H       -5.263583782     9.719142838     0.107114143
 H       -4.313092895     7.482083584     0.131156028
 H       -5.781150275    11.866941137    -1.812987400
 H       -6.842351875    13.431904694     0.674029189
 H       -9.092919332    13.954085594     0.706424289
 H      -11.368346545    13.880795978    -0.279814483
 H       -9.835892958    11.644902920    -3.627572500
 H       -7.579710779    11.710191911    -2.650915923
 H      -13.612951517    11.568503532    -3.308096382
 H      -12.371897737    10.699618619    -2.373302600
 H      -12.015955273    11.237859608    -4.039417783
 H       -9.561088922    14.833343765    -7.172302169
 H       -9.018246126    13.845022086    -5.784356422
 H       -8.188859383    15.382685328    -6.189201852
 H      -11.247523863    17.389293892    -3.684823227
 H      -10.560800093    17.961152315    -1.390268607
 H       -7.179458579    15.313682074    -1.740121130
 H       -7.869584277    14.715182365    -4.004334027
 H       -9.142428610    17.788123530     0.410746934
 H       -6.696574715    15.860067909     0.150387416
 H       -7.134642615    19.528531142     0.650977436
 H       -7.864349144    21.799840250     1.107026367
 H       -8.670848169    20.764971126     5.206309756
 H       -7.955306214    18.478281865     4.795404755
 H       -9.082363820    22.962754934     4.531722194
 H       -8.483450982    23.662267683     1.575753060
 H       -9.705436204    24.834100313     4.996643807
 H      -10.432947750    27.107445881     5.443296543
 H       -9.619178547    28.140218568     1.294582222
 H       -8.889862169    25.854902033     0.895820644
 H      -13.445258268    14.110177801    -3.405760839
 H      -11.917745462    14.851284859    -2.853971410
 H      -10.846551539    13.247712028    -4.786226975
 H      -12.481314422    13.290655202    -5.439611705
 H      -11.749787311    15.221061153    -6.501042793
 H      -12.142031003    16.007044335    -4.961104238
 H        2.262898551    -1.030443333     0.028451892
 H        2.263984043     0.532611405     0.882500798
 H        2.273270772     0.488889073    -0.902256283
 H      -11.897865874    30.739986886     5.496902548
 H      -10.888599689    29.448693850     6.195138495
 H      -12.417334646    29.040625188     5.369062532
 H       -9.510502823    31.723537986     3.994658502
 C       -8.099539351    30.300768150     4.835228371
 C       -8.378778631    30.783874677     2.396751633
 H      -11.132588671    30.016673608     1.346532733
 C      -12.973106688    29.150757479     2.100897888
 C      -12.265933062    31.536535373     2.400713585
 H       -7.482205820    16.254494070     4.569788802
 C       -9.298490915    15.911899422     3.424508223
 C       -7.279708084    14.432986283     3.414790428
 H       -4.781421169    15.891036857     2.249166382
 C       -4.300030728    17.881324847     1.525073991
 C       -4.556442922    17.241017750     3.934204267
 H       -4.732546778    13.986572375     1.662959619
 C       -4.774754342    12.036974202     2.626916712
 C       -2.718640689    13.409135278     2.234336445
 H       -2.004273042    13.657542733    -0.679755059
 C       -2.863730480    13.175537012    -2.614392374
 C       -3.592409037    15.066966338    -1.140606990
 H       -0.065672450    -1.929003426    -1.522717394
 C       -2.109859512    -1.201036035    -1.576951700
 C       -0.198600356    -0.216853009    -2.854456659
 H       -1.789464243    -0.880239474     1.445724235
 C       -0.218243021    -2.364428652     1.640685464
 C       -0.295848917    -0.169885165     2.849523640
 H       -8.525257498    30.294869866     5.846848142
 H       -7.268618577    31.020511797     4.856116211
 H       -7.647249755    29.314168989     4.658741405
 H       -9.013489321    31.142991335     1.576865073
 H       -7.938319362    29.825169201     2.088413522
 H       -7.542465595    31.494477941     2.470085925
 H      -12.689556225    28.098582503     1.954612685
 H      -13.546007349    29.440909253     1.208649427
 H      -13.674697006    29.189629178     2.944688030
 H      -11.455098957    32.273761339     2.463587772
 H      -12.925982433    31.690508305     3.264635628
 H      -12.856137341    31.804387931     1.512212609
 H       -9.732014284    16.908090295     3.588664029
 H       -9.746682584    15.255138016     4.183006398
 H       -9.661131623    15.552944904     2.450110706
 H       -6.195180401    14.322324259     3.546851707
 H       -7.552053611    13.972642615     2.454426946
 H       -7.746659207    13.812542638     4.193376493
 H       -4.563472246    17.707487971     0.472374651
 H       -3.216103368    17.718033278     1.605625324
 H       -4.463996124    18.948232866     1.734182185
 H       -4.975248105    16.555561776     4.681978110
 H       -4.768481803    18.267189556     4.266507878
 H       -3.464423723    17.123410944     3.987592763
 H       -5.807136014    11.788618971     2.344264101
 H       -4.820282010    12.446076505     3.646216743
 H       -4.219296026    11.091092132     2.705832290
 H       -2.214538245    14.202643066     1.667886862
 H       -2.037961686    12.547862663     2.283702814
 H       -2.812366932    13.782305324     3.264792460
 H       -2.435594157    12.168310180    -2.711071696
 H       -2.178910376    13.850021836    -3.147829424
 H       -3.808561479    13.189788438    -3.175555215
 H       -3.664054321    15.498146895    -0.132295892
 H       -4.585556543    15.140346858    -1.607181630
 H       -2.935081253    15.736140175    -1.713730369
 H       -2.469058701    -1.766274748    -0.707770455
 H       -2.367579722    -1.802658997    -2.460932682
 H       -2.704765946    -0.280162573    -1.651614672
 H        0.882923980    -0.058944202    -2.955290551
 H       -0.689004378     0.760383372    -2.971015651
 H       -0.503035791    -0.819246529    -3.722269626
 H       -0.508611833    -2.966451826     0.770003049
 H       -0.687032395    -2.841377607     2.513789747
 H        0.865800024    -2.474363289     1.776788927
 H       -0.635336205     0.875518945     2.876220520
 H        0.783196891    -0.172849907     3.052670547
 H       -0.773162771    -0.668880096     3.704974980

