187   

Si        0.000000000     0.000000000     0.000000000
 C        1.863151145     0.000000000     0.000000000
 C       -0.668443231     1.713786597     0.000000000
 C        0.105926957     2.794435199    -0.434799396
 C       -0.414689620     4.088792707    -0.429066757
 C       -1.726142254     4.325221836    -0.010384563
 C       -2.504522270     3.239678921     0.414327771
 C       -1.984129174     1.949413901     0.420176682
 C       -2.325977326     5.653427269     0.018023138
 C       -1.716879029     6.795192189    -0.343733562
 C       -2.359518818     8.105127128    -0.298186617
 C       -3.680074312     8.269605241     0.133238950
 C       -4.268725608     9.531708759     0.166642755
 C       -3.543511775    10.661465896    -0.227103493
 C       -2.220164306    10.503180284    -0.656453426
 C       -1.635833100     9.238199667    -0.690367955
Si       -4.334254341    12.321284346    -0.177558698
 C       -3.034311233    13.593085556    -0.331388953
 C       -3.048008346    14.623190602    -1.186518825
 C       -1.979521456    15.619677023    -1.272836249
 C       -2.098690994    16.659226994    -2.207960975
 C       -1.114028342    17.625207402    -2.326644987
 C        0.035332155    17.567089317    -1.512211919
 C        0.150220917    16.539397802    -0.564345014
 C       -0.861644438    15.593925105    -0.436296701
 N        1.010319573    18.583120776    -1.677586458
 C        1.528008482    18.705149874    -3.061805336
 C        2.073362424    18.633418413    -0.659346379
 C        1.680768735    17.392889855    -3.853499052
 C        2.582573339    16.368623229    -3.142271365
 N        2.834229948    15.146368742    -3.917922575
 C        1.791316315    14.219426852    -4.098376291
 C        0.597541887    14.276164683    -3.354349790
 C       -0.411751964    13.345198376    -3.557820823
 C       -0.249738786    12.285471789    -4.458471992
 C        0.951792424    12.210320611    -5.172228016
 C        1.958039526    13.149520408    -5.001939411
 C        3.715958732    15.368952861    -5.077913745
 C       -1.334032672    11.317199681    -4.652460617
 C       -1.238616622    10.283975504    -5.498666645
Si       -2.446250908     8.972128461    -5.894899854
 C       -1.529876209     7.381468990    -5.740768065
 C       -0.693496243     7.196154729    -4.632083565
 C        0.019365526     6.009360446    -4.473504397
 C       -0.091025572     4.980850395    -5.414064693
 C       -0.934048652     5.166112324    -6.517192181
 C       -1.650213233     6.350539538    -6.677665212
 C        0.634532061     3.720931011    -5.291943678
 C        1.473252482     3.411284750    -4.288665285
 C        2.194584301     2.148049909    -4.175264494
 C        2.075755010     1.124781082    -5.119648636
 C        2.783294293    -0.068512229    -4.973994778
 C        3.634476809    -0.262186318    -3.881550952
 C        3.757386974     0.763739514    -2.934819613
 C        3.045985173     1.951723972    -3.079674486
Si        4.576561869    -1.830592338    -3.672503720
 C        4.333755979    -2.975274224    -5.125933529
 C        6.439784546    -1.479801889    -3.506742763
 C        3.948948322    -2.654739059    -2.075493610
 C       -3.982014396     8.957650514    -4.782845161
 C       -3.031613470     9.245115780    -7.686743534
 C       -5.585975131    12.457124896    -1.604119267
 C       -5.245293924    12.547042030     1.473850863
 C       -0.632685714    -0.895237000    -1.555670911
 C       -0.644357249    -0.932339643     1.529110320
 H        1.132724739     2.663944224    -0.788593014
 H        0.207683635     4.915551674    -0.765198887
 H       -3.529018139     3.403704086     0.742419443
 H       -2.637909890     1.142863451     0.762932686
 H       -3.363070233     5.669938956     0.370061175
 H       -0.684275664     6.794432934    -0.700365085
 H       -4.264249774     7.406549193     0.447578055
 H       -5.303631397     9.595421349     0.513489195
 H       -1.608543030    11.352089363    -0.981478759
 H       -0.606680651     9.133808220    -1.031087078
 H       -2.198335990    13.449846557     0.374583053
 H       -3.867271583    14.802832709    -1.894470485
 H       -2.976552522    16.708940101    -2.852675118
 H       -1.225673497    18.437013427    -3.041353652
 H        1.020609793    16.469719274     0.081119364
 H       -0.758730592    14.809991713     0.316149260
 H        2.638949292    19.573632710    -0.783052558
 H        2.781846468    17.791929621    -0.695033430
 H        1.614537941    18.671105911     0.345156186
 H        4.385197005    16.225631271    -4.900214134
 H        3.162027627    15.550577093    -6.013427567
 H        4.360540366    14.480623126    -5.213143341
 H        0.437813782    15.067858003    -2.625808462
 H       -1.338923939    13.439278375    -2.986078720
 H        1.113570555    11.395089199    -5.880077330
 H        2.876485060    13.046145622    -5.570206192
 H       -2.220784721    11.510927239    -4.037892946
 H       -0.314382696    10.140326034    -6.091445947
 H       -0.570671983     7.967582706    -3.863407399
 H        0.661677546     5.886643944    -3.603604651
 H       -1.037006120     4.376336648    -7.258214354
 H       -2.297991508     6.435483762    -7.553592512
 H        0.448353909     3.007902368    -6.100526318
 H        1.657155900     4.120389036    -3.476656064
 H        1.423899359     1.250967867    -5.982196853
 H        2.646978968    -0.831518830    -5.745148175
 H        4.409156681     0.668514337    -2.060907418
 H        3.156946763     2.736905188    -2.333898968
 H        0.814926013    19.372447911    -3.604114828
 H        2.498064069    19.246799113    -3.040216559
 H        0.685139268    16.939482843    -4.040187696
 H        2.085903443    17.621903416    -4.856818541
 H        3.568568069    16.826978986    -2.900030990
 H        2.138281338    16.070693737    -2.163104452
 H        2.261295529    -1.029835045     0.043302858
 H        2.261615473     0.552171719     0.869014574
 H        2.262903732     0.471472462    -0.917314026
 H        4.889556487    -3.919390712    -4.985405030
 H        4.687574305    -2.517653282    -6.066579541
 H        3.268254531    -3.236470826    -5.256934080
 H        6.932036366    -2.495927037    -3.505382430
 C        6.993974004    -0.683506208    -4.702671989
 C        6.844597515    -0.759789732    -2.208021280
 H        4.015546405    -1.860152494    -1.275625345
 C        2.478239789    -3.095363937    -2.185805869
 C        4.795152145    -3.857472257    -1.623017152
 H       -4.410381277    10.001305946    -4.835200899
 C       -5.068900840     7.973948703    -5.254133843
 C       -3.643699717     8.646427696    -3.318708853
 H       -3.690854355     8.364285257    -7.935716993
 C       -3.867413335    10.527293927    -7.853737549
 C       -1.871908347     9.274360624    -8.698591897
 H       -5.997415751    13.506405935    -1.554108421
 C       -4.935094943    12.259203687    -2.985128107
 C       -6.766002827    11.477425603    -1.474862970
 H       -6.042986732    11.749038508     1.500472261
 C       -4.324573396    12.335874214     2.689041870
 C       -5.937469853    13.915444450     1.599339268
 H       -0.148897900    -1.914359572    -1.543061451
 C       -2.159343054    -1.093260884    -1.568290760
 C       -0.218843551    -0.181124562    -2.852740975
 H       -1.768930462    -0.947990177     1.435768165
 C       -0.159063108    -2.391956063     1.601034562
 C       -0.292017896    -0.221274111     2.848348054
 H        6.833807804    -1.178920465    -5.669092177
 H        8.081050309    -0.555677074    -4.599614323
 H        6.570333286     0.328490034    -4.775776637
 H        6.480494362    -1.253787593    -1.298456141
 H        6.511222184     0.286614958    -2.181152556
 H        7.940885652    -0.731423978    -2.123295289
 H        1.806405219    -2.291843140    -2.523922706
 H        2.105427885    -3.414548251    -1.201926267
 H        2.337654314    -3.948341836    -2.862211529
 H        5.847109521    -3.605233496    -1.437643370
 H        4.774835191    -4.690210118    -2.338167714
 H        4.403113384    -4.256831624    -0.676205681
 H       -5.439914797     8.182113754    -6.265012356
 H       -5.941304855     8.033914211    -4.587295854
 H       -4.736624420     6.926338355    -5.226788017
 H       -2.902848754     9.334442898    -2.884428343
 H       -3.268201029     7.623337822    -3.168985566
 H       -4.540535024     8.733764163    -2.688008235
 H       -4.775426502    10.537741859    -7.237121498
 H       -4.202863477    10.624901724    -8.895799798
 H       -3.299158248    11.440745782    -7.627049972
 H       -1.227832661     8.385535863    -8.654440964
 H       -1.227080286    10.156330117    -8.579944119
 H       -2.266819420     9.317319149    -9.723282610
 H       -4.116399349    12.961363191    -3.193012987
 H       -5.679274136    12.409689741    -3.779366664
 H       -4.539797747    11.240287817    -3.121854269
 H       -7.338059726    11.599891629    -0.546754301
 H       -6.456858801    10.424629013    -1.544109252
 H       -7.479857215    11.639170619    -2.295698538
 H       -3.827620033    11.355301141     2.693387783
 H       -4.910043973    12.385793060     3.618293365
 H       -3.544666388    13.104689157     2.775101654
 H       -6.677844287    14.103323601     0.811223502
 H       -5.228670188    14.755842903     1.597733966
 H       -6.482422754    13.975654727     2.552492006
 H       -2.530055277    -1.683600742    -0.721554296
 H       -2.458543606    -1.636533759    -2.476335094
 H       -2.712156717    -0.143135760    -1.585908623
 H        0.868903773    -0.049341514    -2.956741847
 H       -0.676597451     0.813296255    -2.960412425
 H       -0.540099065    -0.763784831    -3.726896324
 H       -0.439950437    -2.986033888     0.721722185
 H       -0.610420562    -2.895096661     2.468134546
 H        0.928182138    -2.475534375     1.729540092
 H       -0.657275136     0.814568819     2.893329760
 H        0.787302021    -0.199619974     3.048816431
 H       -0.753722355    -0.746816325     3.695994618

