187   

Si        0.000000000     0.000000000     0.000000000
 C        1.865505270     0.000000000     0.000000000
 C       -0.678617173     1.711006512     0.000000000
 C        0.147956098     2.817223909     0.220073989
 C       -0.379206462     4.108582462     0.217467578
 C       -1.743043155     4.323385009     0.003152633
 C       -2.570618312     3.213551885    -0.214581847
 C       -2.046784425     1.923846961    -0.217622846
 C       -2.337976683     5.655745324    -0.008089633
 C       -1.657216548     6.798794207     0.181902957
 C       -2.250421361     8.131907222     0.171000402
 C       -3.614770931     8.347829358    -0.043326161
 C       -4.139695082     9.639446743    -0.045540231
 C       -3.305640681    10.744809015     0.152978948
 C       -1.937799082    10.532825455     0.366065061
 C       -1.419339804     9.240422272     0.379497864
Si       -3.983733512    12.454877211     0.152685842
 C       -2.660192608    13.641348931    -0.268509815
 C       -2.354909328    14.753410168     0.412935288
 C       -1.283258130    15.676671767     0.037160732
 C       -1.055222012    16.811650818     0.828780030
 C       -0.053978211    17.715796108     0.516272819
 C        0.732506612    17.538599721    -0.644431895
 C        0.502629764    16.399487155    -1.441239167
 C       -0.474848965    15.479902523    -1.085986551
 N        1.740704443    18.461531424    -0.946210762
 C        1.513442288    19.873631856    -0.601469023
 C        2.519510996    18.247342953    -2.172168355
 C        0.189929947    20.477613318    -1.107556035
 C        0.176402739    20.826774286    -2.606111346
 N        1.076645261    21.916050293    -3.036337716
 C        2.398793150    21.509474568    -3.350492510
 C        2.557450392    20.612551360    -4.426492051
 C        3.820657245    20.174665131    -4.787161784
 C        4.963520424    20.637959024    -4.116403862
 C        4.802476444    21.549938287    -3.071094807
 C        3.539388463    21.995757952    -2.695228748
 C        0.951360727    23.139328100    -2.229750984
 C        6.274553188    20.141388829    -4.539575327
 C        7.434737045    20.507962819    -3.979002527
Si        9.070489974    19.884980406    -4.510954228
 C        9.096567112    19.468195587    -6.301766909
 C        8.322466171    20.212681279    -7.199515595
 C        8.329734392    19.911176717    -8.560296718
 C        9.118390406    18.869326248    -9.056833308
 C        9.899015556    18.131294302    -8.157673785
 C        9.891214196    18.427518834    -6.796701170
 C        9.157425784    18.518333454   -10.472564546
 C        8.459412521    19.144104832   -11.435414850
 C        8.498152156    18.793437484   -12.851273560
 C        9.283111967    17.749989443   -13.348429993
 C        9.289974460    17.448950301   -14.710364335
 C        8.504344873    18.182185993   -15.605030441
 C        7.714902112    19.228497924   -15.108556917
 C        7.714558101    19.530310070   -13.749653761
Si        8.501704284    17.798051587   -17.405328370
 C        9.322323412    16.160736091   -17.759380954
 C        6.695601196    17.772175252   -18.006069788
 C        9.433700586    19.164214285   -18.347694757
 C       10.368660750    21.233390243    -4.175549130
 C        9.496080918    18.349853022    -3.470887326
 C       -5.360668452    12.594625218    -1.153920280
 C       -4.728063515    12.823738683     1.863347011
 C       -0.660106004    -0.898292677    -1.542915533
 C       -0.605113680    -0.928518345     1.547800815
 H        1.222260696     2.712531469     0.395115486
 H        0.286676616     4.952776931     0.387429397
 H       -3.635705384     3.358783539    -0.384721351
 H       -2.740563711     1.097664905    -0.397000151
 H       -3.416800763     5.673606969    -0.187498235
 H       -0.578112896     6.780229169     0.361663652
 H       -4.281634551     7.503853266    -0.208135983
 H       -5.214883450     9.746005414    -0.212455131
 H       -1.240846496    11.362023587     0.528201615
 H       -0.354617325     9.093455134     0.551138491
 H       -2.106059404    13.364842134    -1.181115841
 H       -2.890757054    15.060211200     1.320621720
 H       -1.666609081    16.981259997     1.715582263
 H        0.126526785    18.561706370     1.172390760
 H        1.085985616    16.224255731    -2.339277212
 H       -0.620883312    14.597295580    -1.711324461
 H        3.321035982    19.005704047    -2.250282041
 H        1.917055142    18.296059504    -3.093834386
 H        3.019044906    17.262273773    -2.119285224
 H       -0.112632805    23.431256214    -2.187356402
 H        1.493285448    23.959328186    -2.734872295
 H        1.329895137    23.049757353    -1.199737134
 H        1.681014721    20.276934709    -4.977771031
 H        3.928476305    19.473623593    -5.616178085
 H        5.675912563    21.927598429    -2.537995943
 H        3.449034152    22.709427066    -1.881979064
 H        6.218240495    19.434743806    -5.380067604
 H        7.464498284    21.210998218    -3.132685580
 H        7.689542559    21.043674643    -6.869725533
 H        7.713702726    20.500295055    -9.237392070
 H       10.520876198    17.316630011    -8.523746405
 H       10.521716849    17.817652404    -6.144044877
 H        9.815854742    17.679977617   -10.718166173
 H        7.800992592    19.982692561   -11.189896699
 H        9.900148692    17.160732674   -12.672539518
 H        9.925357373    16.622157266   -15.039761874
 H        7.079826790    19.834979940   -15.760567736
 H        7.095627435    20.347242466   -13.383330560
 H        1.552688937    19.953117894     0.511802263
 H        2.374489695    20.475373267    -0.973073211
 H       -0.641538059    19.768163154    -0.908718342
 H       -0.048322860    21.375424501    -0.507389122
 H        0.397168713    19.913478148    -3.202548878
 H       -0.855448974    21.141592266    -2.896020155
 H        2.263549501    -1.029945689    -0.032404716
 H        2.273948661     0.485960147     0.903470421
 H        2.262514398     0.536352527    -0.880931231
 H        9.281518960    15.919481145   -18.836636230
 H        8.819517278    15.339609255   -17.216866830
 H       10.384922385    16.162342846   -17.459404846
 H        6.286251380    18.803833896   -17.799667147
 C        6.553979537    17.502359997   -19.514573163
 C        5.831693823    16.760046248   -17.232086939
 H        9.448666756    18.833753105   -19.426569028
 C        8.747062513    20.540057567   -18.280856753
 C       10.891246519    19.317375100   -17.875427033
 H       10.324602218    21.442514077    -3.067789362
 C       11.800831177    20.791128484    -4.522302841
 C       10.054412862    22.542258819    -4.922182265
 H       10.531120294    18.032845504    -3.788856473
 C        9.530311959    18.632863728    -1.958422840
 C        8.532135957    17.179856304    -3.737252417
 H       -6.165489557    11.869861697    -0.837859246
 C       -5.985307830    13.999488614    -1.220399598
 C       -4.883079629    12.190500304    -2.560128904
 H       -5.031949227    13.910246555     1.842184600
 C       -5.979984793    11.984981283     2.176826552
 C       -3.707816175    12.632507101     3.000658979
 H       -1.784742125    -0.894062269    -1.444514357
 C       -0.299949353    -0.167953253    -2.849365251
 C       -0.200888679    -2.363654847    -1.644407970
 H       -0.097390225    -1.935772929     1.514613827
 C       -0.191057748    -0.227740402     2.854846771
 C       -2.125889328    -1.163775248     1.575976696
 H        7.088496958    18.229999156   -20.138855054
 H        5.496063543    17.564034679   -19.808858684
 H        6.894298859    16.499306903   -19.804109698
 H        5.839312043    16.924968734   -16.145080129
 H        6.127623431    15.717766939   -17.410386949
 H        4.781644111    16.841607975   -17.547210140
 H        7.723845194    20.536673135   -18.677238673
 H        9.306975904    21.268380188   -18.885688910
 H        8.713797284    20.951268325   -17.262101015
 H       11.478739087    18.394652651   -17.965610395
 H       10.968662507    19.660507626   -16.833634626
 H       11.407985501    20.071196926   -18.486664220
 H       12.134326584    19.910651041    -3.958372646
 H       12.511433031    21.595637314    -4.282731165
 H       11.934989804    20.574127375    -5.591899354
 H        9.064915243    22.955103192    -4.683261189
 H       10.114503233    22.435565825    -6.015082527
 H       10.785556665    23.316672452    -4.649617452
 H       10.252485995    19.409274561    -1.675604981
 H        9.828580113    17.725079706    -1.413810869
 H        8.549703878    18.922672545    -1.555453246
 H        8.493075757    16.877137956    -4.792871136
 H        7.501932257    17.393569604    -3.416905200
 H        8.851933353    16.291423986    -3.174511281
 H       -6.428978728    14.323905720    -0.270375419
 H       -6.797623344    14.015917087    -1.960786846
 H       -5.268136531    14.771885573    -1.533462756
 H       -4.458439037    11.177488425    -2.601585024
 H       -4.134773017    12.881125465    -2.972686142
 H       -5.728939219    12.197431903    -3.261991313
 H       -6.800841712    12.145415522     1.466478989
 H       -6.375072239    12.255397670     3.166840768
 H       -5.774040787    10.905937229     2.215468332
 H       -2.793550474    13.228953948     2.876188542
 H       -3.400605583    11.583835985     3.124303212
 H       -4.148950125    12.938988437     3.959354218
 H       -0.648498141     0.874577668    -2.873516458
 H       -0.774095926    -0.669582120    -3.704934471
 H        0.778736919    -0.160820325    -3.054297604
 H       -0.486459073    -2.970201663    -0.775288493
 H        0.884090541    -2.463887791    -1.780427841
 H       -0.665148224    -2.842516667    -2.518813802
 H        0.893758606    -0.093110437     2.953705435
 H       -0.506044524    -0.828060256     3.720367000
 H       -0.660938709     0.758833671     2.977454591
 H       -2.496813265    -1.725364810     0.709381938
 H       -2.700551444    -0.229469174     1.645013846
 H       -2.397362668    -1.755097935     2.462711904

