187   

Si        0.000000000     0.000000000     0.000000000
 C        1.865274659     0.000000000     0.000000000
 C       -0.675444335     1.712752034     0.000000000
 C        0.148387087     2.813027616    -0.257610353
 C       -0.373784366     4.106242523    -0.255116334
 C       -1.728848647     4.328548815     0.002232698
 C       -2.554057884     3.225122719     0.257500312
 C       -2.035823812     1.933183139     0.255089359
 C       -2.317858681     5.662909431     0.015004256
 C       -1.640681305     6.800894063    -0.213602665
 C       -2.235471280     8.132489598    -0.199436118
 C       -3.591772568     8.344615137     0.058979147
 C       -4.123870555     9.633624061     0.063825481
 C       -3.315578322    10.736260214    -0.225822289
 C       -1.954950157    10.527068831    -0.491186256
 C       -1.420866220     9.241719703    -0.465889712
Si       -3.978228422    12.451110624    -0.229893149
 C       -3.483731663    13.332989529    -1.753606329
 C       -3.276267020    12.718233843    -2.925521339
 C       -2.880026008    13.404526121    -4.157486975
 C       -2.695204051    12.638535104    -5.319593091
 C       -2.320619984    13.236100183    -6.511927655
 C       -2.140956228    14.628259634    -6.568404288
 C       -2.321149655    15.400124974    -5.416287596
 C       -2.677664279    14.784409341    -4.219518187
 N       -1.753280019    15.159380336    -7.843125820
 C       -2.925289432    15.333261544    -8.731662487
 C       -0.900756665    16.359065202    -7.770582611
 C       -3.858523738    16.497776158    -8.342873518
 C       -5.295525369    16.282964690    -8.855220709
 N       -6.246850213    15.776249945    -7.844935915
 C       -6.014469087    14.449558925    -7.400634404
 C       -5.958143510    13.428929533    -8.370707065
 C       -5.733578599    12.116174820    -7.988661549
 C       -5.597028330    11.769697016    -6.636305443
 C       -5.689113773    12.780901716    -5.676931043
 C       -5.910857433    14.103120329    -6.044919969
 C       -6.535022870    16.766792427    -6.793269212
 C       -5.360817860    10.367079763    -6.288459453
 C       -5.214416478     9.916232144    -5.035330692
Si       -4.919207565     8.166805876    -4.591866980
 C       -5.664715858     6.976168846    -5.777226179
 C       -6.766300444     7.340781664    -6.560895650
 C       -7.326607977     6.434175107    -7.457139782
 C       -6.811990553     5.137175121    -7.580688950
 C       -5.720178449     4.771388410    -6.788113071
 C       -5.154616089     5.678052055    -5.893007118
 C       -7.432814792     4.223061274    -8.533542086
 C       -7.034936478     2.957988024    -8.751217567
 C       -7.655799751     2.043934420    -9.704077932
 C       -8.747127035     2.408254920   -10.496885351
 C       -9.310169548     1.502266347   -11.395493296
 C       -8.797920594     0.206554317   -11.514347968
 C       -7.704430274    -0.162128719   -10.718916586
 C       -7.140447853     0.746516855    -9.827777224
Si       -9.529397478    -1.000821599   -12.695185144
 C      -11.167637221    -0.404875354   -13.359579816
 C       -8.339078824    -1.263091514   -14.157343978
 C       -9.751522775    -2.660480114   -11.789679234
 C       -3.033149779     7.895476413    -4.553106093
 C       -5.603058969     7.859723678    -2.847155844
 C       -5.882901622    12.425485210    -0.182823733
 C       -3.336636239    13.394692989     1.287783276
 C       -0.610639119    -0.919544673    -1.550660419
 C       -0.660466047    -0.901501230     1.540456378
 H        1.216490827     2.701596815    -0.464425053
 H        0.289336238     4.945530630    -0.457490926
 H       -3.612939802     3.376402534     0.459471259
 H       -2.727539323     1.111126061     0.460490681
 H       -3.390441112     5.686444769     0.231501159
 H       -0.568839634     6.778534554    -0.429379522
 H       -4.247364019     7.500622671     0.267433962
 H       -5.188200845     9.735564258     0.294557420
 H       -1.276888585    11.353551400    -0.729430683
 H       -0.360352114     9.098389777    -0.663741744
 H       -3.386119294    14.423309859    -1.649929069
 H       -3.371996313    11.628397067    -3.050154815
 H       -2.854917119    11.557343233    -5.292102387
 H       -2.168098073    12.639310582    -7.410541634
 H       -2.179813795    16.475896822    -5.445784083
 H       -2.807010347    15.397071422    -3.327982814
 H       -0.499725185    16.560495554    -8.779168659
 H       -0.041313874    16.150094716    -7.109775431
 H       -1.405738178    17.266730875    -7.409845073
 H       -6.844083328    17.714186763    -7.266449325
 H       -5.688172963    16.974173426    -6.120128325
 H       -7.390084153    16.413645679    -6.188969889
 H       -6.093697658    13.673873259    -9.420732292
 H       -5.674295105    11.341298411    -8.753437923
 H       -5.583363034    12.541236963    -4.616236010
 H       -5.961719095    14.861752746    -5.269879761
 H       -5.314493253     9.707937928    -7.166348214
 H       -5.255780502    10.602273861    -4.173575425
 H       -7.218683490     8.336237686    -6.498034192
 H       -8.177108164     6.738664263    -8.064262779
 H       -5.302574870     3.769050690    -6.862889731
 H       -4.303994904     5.332874990    -5.297356775
 H       -8.278673983     4.643275631    -9.085704780
 H       -6.189262421     2.537844088    -8.198870496
 H       -9.168249184     3.409084758   -10.419718664
 H      -10.160807155     1.846288413   -11.990304935
 H       -7.262817798    -1.161489101   -10.767925641
 H       -6.290575181     0.442272481    -9.219763207
 H       -2.540382783    15.473166782    -9.764870457
 H       -3.492423362    14.371835035    -8.730698061
 H       -3.867812144    16.612415634    -7.240801259
 H       -3.456468826    17.447683034    -8.736047923
 H       -5.707382600    17.244189246    -9.240456095
 H       -5.302859519    15.587456771    -9.723906904
 H        2.263216946    -1.029743207     0.042768410
 H        2.261814831     0.544975961     0.875930849
 H        2.274492579     0.476745789    -0.907916492
 H      -11.619042948    -1.153447206   -14.034915844
 H      -11.060752014     0.534784199   -13.929324313
 H      -11.885819315    -0.222774255   -12.539583340
 H       -8.878765428    -1.953553512   -14.868154316
 C       -8.028720083     0.045318003   -14.907476267
 C       -7.010427911    -1.931727285   -13.761708624
 H       -8.718778935    -2.971685721   -11.456830113
 C      -10.631690935    -2.532857060   -10.533116876
 C      -10.315137483    -3.777975143   -12.685246269
 H       -2.877234864     6.882092021    -4.082417865
 C       -2.410965137     7.873963100    -5.960768356
 C       -2.289377607     8.936310816    -3.702253067
 H       -5.056914609     8.581615882    -2.169048996
 C       -7.109985702     8.154473994    -2.746675116
 C       -5.334264757     6.434124886    -2.334664383
 H       -6.164150057    11.813288035     0.721507057
 C       -6.502835838    13.824725311    -0.018744192
 C       -6.495338075    11.759478549    -1.428628550
 H       -3.800240435    14.422275536     1.231967966
 C       -3.762903964    12.749866626     2.618230236
 C       -1.807017392    13.564861639     1.282493063
 H       -0.102946859    -1.927119746    -1.526544977
 C       -2.131627960    -1.153555262    -1.573004566
 C       -0.201968448    -0.210824030    -2.855259391
 H       -1.785511935    -0.890527521     1.446137044
 C       -0.209471020    -2.370008637     1.633079560
 C       -0.291594643    -0.179385450     2.849074044
 H       -8.923125782     0.546649477   -15.299054910
 H       -7.387439921    -0.161198975   -15.776269162
 H       -7.483740439     0.773023823   -14.288870089
 H       -7.139987528    -2.918882523   -13.300394576
 H       -6.408989326    -1.315287766   -13.078780826
 H       -6.389751654    -2.090532454   -14.655710643
 H      -10.258051363    -1.788127992    -9.815643512
 H      -10.660603063    -3.490537177    -9.994141292
 H      -11.674236035    -2.276176674   -10.763081961
 H       -9.700538541    -3.975831786   -13.572919533
 H      -11.339707198    -3.577937357   -13.025769538
 H      -10.357326446    -4.722943287   -12.124184977
 H       -2.833780848     7.098173506    -6.613206105
 H       -1.334260807     7.664277357    -5.892363263
 H       -2.506303165     8.834891234    -6.486463188
 H       -2.693318244     9.041817545    -2.684571431
 H       -2.276119687     9.934104125    -4.162017197
 H       -1.237977652     8.640574289    -3.579275506
 H       -7.378588679     9.173885377    -3.055975900
 H       -7.448519268     8.045593590    -1.707000417
 H       -7.720160297     7.459440837    -3.340701750
 H       -4.263441680     6.205492039    -2.237167437
 H       -5.786206696     5.655527274    -2.964948671
 H       -5.769193546     6.304352300    -1.333629697
 H       -6.185223971    14.339473082     0.896651134
 H       -7.598000961    13.745477835     0.042774259
 H       -6.291368160    14.489060267    -0.868393969
 H       -6.139322893    10.733593745    -1.600646263
 H       -6.312539629    12.332207336    -2.349828670
 H       -7.587040727    11.690875798    -1.321268159
 H       -4.851416895    12.675763374     2.738530554
 H       -3.401438695    13.354727729     3.462672831
 H       -3.342600639    11.743967084     2.761141796
 H       -1.423751431    14.051701961     0.375459178
 H       -1.271814160    12.612126908     1.402984190
 H       -1.496133205    14.197828958     2.126171550
 H       -2.497063476    -1.729361080    -0.713307890
 H       -2.409222958    -1.730236705    -2.467484328
 H       -2.706948047    -0.218450859    -1.622802940
 H        0.882621080    -0.077779144    -2.958813791
 H       -0.670622873     0.777202918    -2.969394657
 H       -0.522466706    -0.805061430    -3.723001212
 H       -0.499807662    -2.970053918     0.760989431
 H       -0.675398963    -2.851129565     2.505425721
 H        0.875117945    -2.477378090     1.766896373
 H       -0.633926920     0.864899531     2.879844334
 H        0.787842770    -0.179504214     3.050329344
 H       -0.765612951    -0.682848645     3.703770132

