187   

Si        0.000000000     0.000000000     0.000000000
 C        1.865471136     0.000000000     0.000000000
 C       -0.674737513     1.712605291     0.000000000
 C        0.134992429     2.804744980    -0.327696557
 C       -0.384446725     4.099081884    -0.325188040
 C       -1.723970459     4.331237359    -0.002023276
 C       -2.535101372     3.235291801     0.321772040
 C       -2.019165961     1.942238083     0.322000671
 C       -2.309333008     5.667813205     0.013247314
 C       -1.641065390     6.797561394    -0.274989489
 C       -2.222299252     8.135715385    -0.260948856
 C       -3.560852584     8.373663668     0.061373932
 C       -4.074381730     9.670582437     0.062088907
 C       -3.261873104    10.757121327    -0.273911513
 C       -1.918624318    10.520791182    -0.599584111
 C       -1.406073678     9.227042028    -0.587776692
Si       -3.895045174    12.487355287    -0.287023884
 C       -3.112728968    13.448725455    -1.634106915
 C       -2.702067451    12.888349128    -2.779501084
 C       -2.072251665    13.605614815    -3.887323852
 C       -1.696415921    12.878216619    -5.023870836
 C       -1.095155043    13.497106038    -6.108567153
 C       -0.752962980    14.864618101    -6.050915465
 C       -1.107895778    15.591854380    -4.894738087
 C       -1.774989952    14.971225513    -3.848031364
 N       -0.143730310    15.507581767    -7.139443407
 C        0.442969939    14.682244332    -8.208176975
 C        0.614266315    16.733195082    -6.840138735
 C        1.553047656    13.708688727    -7.770113420
 C        2.958372672    14.339872502    -7.765684081
 N        3.780019673    14.003017158    -6.579830367
 C        3.282383109    14.643393492    -5.396987202
 C        3.667018149    15.982503180    -5.217781359
 C        3.232639584    16.681049530    -4.102085839
 C        2.408398448    16.067596515    -3.146918805
 C        2.039381968    14.732236692    -3.328249094
 C        2.479811862    14.016829313    -4.437548622
 C        4.014628839    12.555142141    -6.434948254
 C        1.981624478    16.856966425    -1.989002990
 C        1.197305563    16.389895459    -1.010187562
Si        0.649722658    17.351661802     0.444911635
 C       -1.171236970    17.163992898     0.601402480
 C       -1.949876921    17.152537500    -0.563868391
 C       -3.332030000    17.012277112    -0.484223984
 C       -3.968894343    16.912326674     0.759937802
 C       -3.190091526    16.935803262     1.920114179
 C       -1.802978452    17.056542884     1.843196158
 C       -5.419208781    16.766661912     0.791801451
 C       -6.153804039    16.641634978     1.910019797
 C       -7.605233561    16.496337255     1.931606113
 C       -8.375859677    16.473915948     0.766216982
 C       -9.761789795    16.333155661     0.830259083
 C      -10.406083614    16.196650849     2.063730513
 C       -9.634640091    16.213281116     3.233851559
 C       -8.252288647    16.363075355     3.167120026
Si      -12.234483099    16.009856618     2.166766409
 C      -12.985344623    15.682914678     0.490853103
 C      -12.612262727    14.566746680     3.349236547
 C      -13.001457290    17.598981933     2.879465194
 C        1.544761382    16.683065558     1.982751505
 C        1.052150200    19.199844862     0.256107552
 C       -5.779271168    12.440305231    -0.563241375
 C       -3.527965529    13.340464909     1.365708960
 C       -0.617419637    -0.920041025    -1.547586122
 C       -0.655598210    -0.905412282     1.540992311
 H        1.190175428     2.686573086    -0.588975820
 H        0.268049474     4.932172182    -0.580095426
 H       -3.581283826     3.393860030     0.576484873
 H       -2.699761986     1.127241076     0.583609756
 H       -3.368454315     5.701159081     0.284184812
 H       -0.581540588     6.762863574    -0.545571044
 H       -4.216011958     7.543959885     0.319062912
 H       -5.126877343     9.794267599     0.331248035
 H       -1.235573806    11.334674729    -0.868464315
 H       -0.360074027     9.063467967    -0.838968541
 H       -3.010053604    14.528026657    -1.446219363
 H       -2.807001138    11.810875482    -2.977997491
 H       -1.904550056    11.808386199    -5.073812393
 H       -0.886335968    12.909674732    -6.996339487
 H       -0.867409090    16.647234312    -4.813382901
 H       -2.054449669    15.560269148    -2.972458977
 H        1.145294173    17.092345455    -7.735190463
 H        1.353274471    16.595384714    -6.029837582
 H       -0.092111756    17.530188250    -6.543385835
 H        4.590380529    12.208335945    -7.310513388
 H        3.104409899    11.942345009    -6.353843324
 H        4.637256192    12.378222433    -5.540413598
 H        4.316934941    16.453782548    -5.953082895
 H        3.541738097    17.716946542    -3.966068161
 H        1.392071610    14.237471734    -2.601191162
 H        2.180603893    12.978697552    -4.557934586
 H        2.373830487    17.882189091    -2.000409920
 H        0.820700255    15.352307307    -1.023448502
 H       -1.502295336    17.241725483    -1.560130525
 H       -3.923861830    16.988531737    -1.398239922
 H       -3.662347676    16.857188945     2.897267171
 H       -1.244001272    17.061984140     2.782334325
 H       -5.899473443    16.771780114    -0.192293308
 H       -5.677624824    16.640632090     2.894418109
 H       -7.898544726    16.571300072    -0.207697814
 H      -10.311932853    16.328404705    -0.114872472
 H      -10.084072631    16.109097800     4.225456976
 H       -7.670429683    16.375201351     4.086799580
 H       -0.395000972    14.107044991    -8.673060235
 H        0.814321498    15.357937011    -9.010676256
 H        1.317709968    13.320871190    -6.756284231
 H        1.543857580    12.821718690    -8.428845476
 H        3.530354039    14.017820163    -8.663563594
 H        2.892273318    15.448988593    -7.822993275
 H        2.263436484    -1.029010607     0.054609603
 H        2.260802001     0.555354309     0.870011731
 H        2.275360333     0.466860890    -0.912602550
 H      -14.077451618    15.534371957     0.566483721
 H      -12.557831902    14.770944833     0.035802862
 H      -12.811868810    16.521260633    -0.206426754
 H      -12.173198289    14.861297144     4.346659260
 C      -14.117068576    14.316592319     3.551837767
 C      -11.939587939    13.253956812     2.908500895
 H      -14.117658478    17.434401328     2.855607433
 C      -12.594103480    17.885172075     4.335836181
 C      -12.683552549    18.840454777     2.025895865
 H        1.134393336    17.263012951     2.859419368
 C        1.272501154    15.188615336     2.227683464
 C        3.066438983    16.910132176     1.934720186
 H        2.162680768    19.259994947     0.065247725
 C        0.324705016    19.846035206    -0.937338611
 C        0.742568976    20.015671625     1.523911564
 H       -6.196988319    11.817670915     0.280212499
 C       -6.450805189    13.821032766    -0.504402450
 C       -6.154520707    11.762665891    -1.894050599
 H       -3.882155298    14.408059414     1.241030970
 C       -4.281711118    12.728807136     2.558256861
 C       -2.022565965    13.374665115     1.682168204
 H       -0.128517204    -1.936335417    -1.514471652
 C       -2.142702484    -1.125338607    -1.572681715
 C       -0.191661937    -0.227733692    -2.855372143
 H       -1.780202562    -0.908884326     1.442794296
 C       -0.187494881    -2.368297211     1.639268209
 C       -0.299731625    -0.175762837     2.849009089
 H      -14.656018118    15.192650906     3.935208087
 H      -14.268073764    13.515785623     4.290447525
 H      -14.623698564    13.986946711     2.635081348
 H      -10.849252084    13.341198918     2.796772040
 H      -12.338839945    12.863083667     1.963226180
 H      -12.109075755    12.471955334     3.662375745
 H      -12.851952850    17.074359992     5.028784241
 H      -13.118765606    18.779553728     4.702821618
 H      -11.520808289    18.095004934     4.444962911
 H      -13.016850541    18.751339060     0.983908031
 H      -11.612008765    19.086526168     2.012306037
 H      -13.196117591    19.721808587     2.437588533
 H        0.203666296    14.947106182     2.314875169
 H        1.736574492    14.870827084     3.172267228
 H        1.696791409    14.542957890     1.445697534
 H        3.348248708    17.967544806     1.851695040
 H        3.554623735    16.369296528     1.111246786
 H        3.531114909    16.541743720     2.860727508
 H        0.519001247    19.345107267    -1.895560201
 H        0.654489248    20.887227868    -1.060242447
 H       -0.765676885    19.884604008    -0.799526284
 H        1.301730720    19.679522044     2.406587331
 H       -0.325478306    20.015330477     1.783996029
 H        1.018438280    21.069144297     1.370080820
 H       -6.305891531    14.329412649     0.459981621
 H       -7.538491449    13.717715170    -0.629023226
 H       -6.109259481    14.496533212    -1.299615041
 H       -5.766152132    10.739747867    -1.990106449
 H       -5.810676011    12.329254783    -2.771570583
 H       -7.247039643    11.686897046    -1.983564877
 H       -5.373455225    12.769999228     2.446921481
 H       -4.046810466    13.286353350     3.476243987
 H       -4.002728975    11.684273422     2.752761711
 H       -1.425788818    13.852006522     0.891083120
 H       -1.600870370    12.377215893     1.866281206
 H       -1.847909919    13.960877746     2.595892750
 H       -2.520092639    -1.694623191    -0.713860112
 H       -2.429893270    -1.695780496    -2.467993177
 H       -2.699939616    -0.179084432    -1.621901012
 H        0.895325995    -0.113548053    -2.955202990
 H       -0.643676662     0.767120308    -2.978158376
 H       -0.518485988    -0.822627067    -3.720230871
 H       -0.466583136    -2.973829418     0.767380416
 H       -0.651552127    -2.852820162     2.510675594
 H        0.897662778    -2.462212031     1.778315024
 H       -0.653593733     0.864945064     2.875220777
 H        0.778959574    -0.163120710     3.053923531
 H       -0.771101552    -0.681859823     3.703462486

