187   

Si        0.000000000     0.000000000     0.000000000
 C        1.865242744     0.000000000     0.000000000
 C       -0.676079175     1.712294935     0.000000000
 C        0.144709061     2.812871162    -0.265335971
 C       -0.379231781     4.105503133    -0.262469725
 C       -1.732381665     4.326314705     0.005052864
 C       -2.554434039     3.222397845     0.268657772
 C       -2.034986149     1.931228201     0.264458549
 C       -2.324586453     5.658957637     0.019006213
 C       -1.654291118     6.799470989    -0.217800128
 C       -2.257501954     8.127460219    -0.201132704
 C       -1.449338245     9.240584122    -0.464787978
 C       -1.983888837    10.527352229    -0.459190431
 C       -3.345008928    10.725917790    -0.206567890
 C       -4.156644814     9.613966178     0.050331607
 C       -3.617304701     8.329729769     0.054349348
Si       -4.110976511    12.399300045    -0.185346396
 C       -5.736950851    12.246809330    -1.004579206
 C       -6.904143255    12.690242519    -0.521124233
 C       -8.184120802    12.544713215    -1.215425523
 C       -9.342222470    13.050553544    -0.608095344
 C      -10.578335797    12.938927257    -1.222563431
 C      -10.707046950    12.237646179    -2.439766931
 C       -9.548919759    11.718569765    -3.043763215
 C       -8.306640649    11.897014548    -2.447475535
 N      -11.982241282    12.143063276    -3.039261349
 C      -13.105181236    11.784942668    -2.149404022
 C      -12.044427096    11.442340924    -4.333795816
 C      -13.057502828    10.347296983    -1.598791144
 C      -12.463887872    10.285028245    -0.176551955
 N      -11.841328369     8.991351488     0.179512314
 C      -10.614040730     8.781482987    -0.534524891
 C       -9.468309858     9.386357294     0.006810842
 C       -8.242675741     9.231850881    -0.623182555
 C       -8.128069619     8.470770601    -1.796136619
 C       -9.272691429     7.864273815    -2.319112766
 C      -10.507527045     8.007366932    -1.694392999
 C      -12.784592532     7.860866547     0.108343924
 C       -6.812128829     8.334443004    -2.428438071
 C       -6.601897456     7.630360637    -3.547511938
Si       -5.006343821     7.401756422    -4.408629323
 C       -5.248461947     7.791441915    -6.190853124
 C       -6.224643896     8.724555398    -6.565198190
 C       -6.424516218     9.034174575    -7.907575015
 C       -5.647681612     8.431103898    -8.905698399
 C       -4.669834949     7.506829539    -8.527568640
 C       -4.470140403     7.190140663    -7.184182834
 C       -5.895237918     8.788534776   -10.298563916
 C       -5.228205706     8.282619604   -11.349697146
 C       -5.477251116     8.641350924   -12.742013257
 C       -6.455023487     9.565463533   -13.119152453
 C       -6.659720848     9.879269760   -14.462723545
 C       -5.894319356     9.268038623   -15.460633772
 C       -4.913961303     8.339455201   -15.085155302
 C       -4.707852561     8.032938759   -13.743023343
Si       -6.151979844     9.671087441   -17.238057711
 C       -7.731073049    10.628362015   -17.503398250
 C       -4.691957196    10.715481004   -17.871300426
 C       -6.200043661     8.039728954   -18.217863489
 C       -3.676333106     8.552425712    -3.695038856
 C       -4.445944806     5.597424581    -4.203926999
 C       -4.295379449    12.960925136     1.622131446
 C       -3.050176746    13.676118963    -1.108957602
 C       -0.612869331    -0.917757260    -1.551021334
 C       -0.660141901    -0.903445241     1.539478377
 H        1.211454018     2.702412501    -0.478598537
 H        0.280827434     4.945428493    -0.471102020
 H       -3.611805185     3.372995262     0.479949803
 H       -2.723774328     1.108639881     0.477203081
 H       -3.394461525     5.680257825     0.252988291
 H       -0.585102882     6.782253118    -0.445057427
 H       -0.390145710     9.103091610    -0.671880620
 H       -1.303974926    11.358822630    -0.660860756
 H       -5.228268110     9.712994394     0.257271659
 H       -4.269046342     7.480463434     0.255716215
 H       -5.682202772    11.744149980    -1.985879193
 H       -6.992392849    13.203687779     0.444985139
 H       -9.270101283    13.560814522     0.352602987
 H      -11.451081443    13.394719378    -0.762862409
 H       -9.605178276    11.163641577    -3.975410502
 H       -7.421530309    11.492794857    -2.944054131
 H      -13.069904916    11.502727744    -4.735421941
 H      -11.753059950    10.380577287    -4.283734408
 H      -11.385855811    11.959227712    -5.055624779
 H      -13.589965994     8.034466988     0.842803559
 H      -12.260545449     6.935864505     0.406270940
 H      -13.242913497     7.699876951    -0.878127555
 H       -9.555943419     9.977217280     0.917443243
 H       -7.362494019     9.722560083    -0.204058091
 H       -9.208619667     7.266567213    -3.228886851
 H      -11.382403984     7.522071360    -2.115851557
 H       -6.012521496     8.869287410    -1.897850765
 H       -7.431462356     7.101101216    -4.047549871
 H       -6.857495121     9.230025433    -5.827458514
 H       -7.191109883     9.756136303    -8.181903951
 H       -4.053005717     7.024888344    -9.283619822
 H       -3.690936033     6.460198190    -6.948287544
 H       -6.690438914     9.525144978   -10.446863977
 H       -4.433100764     7.546043773   -11.202145599
 H       -7.067573551    10.052019216   -12.362311846
 H       -7.438215365    10.610960037   -14.695565064
 H       -4.286299151     7.829666046   -15.821535756
 H       -3.940863404     7.310306463   -13.470920843
 H      -13.150052293    12.523671704    -1.318625650
 H      -14.045775817    11.937134477    -2.728012569
 H      -14.071780212     9.911057243    -1.599846122
 H      -12.459295930     9.707987291    -2.278107077
 H      -11.684026579    11.072320864    -0.048221077
 H      -13.251435725    10.495192641     0.579427312
 H        2.263138823    -1.029598141     0.046267558
 H        2.261628416     0.547944017     0.874162391
 H        2.274627110     0.473724756    -0.909376486
 H       -7.897751941    10.830868707   -18.576469704
 H       -7.713246396    11.600577580   -16.980464079
 H       -8.604756956    10.061797382   -17.133329954
 H       -4.946355702    10.978400243   -18.938711027
 C       -4.520444350    12.027681509   -17.084149678
 C       -3.349152719     9.963230247   -17.873534610
 H       -5.203675289     7.540863016   -18.036666334
 C       -7.300435465     7.085716756   -17.718786371
 C       -6.358916482     8.238415901   -19.735648354
 H       -3.716446262     8.423577733    -2.571157263
 C       -2.249126165     8.207675630    -4.153787777
 C       -3.961197771    10.029734282    -4.018354151
 H       -3.464008309     5.515176952    -4.754801307
 C       -4.199307836     5.210318213    -2.736840578
 C       -5.429379748     4.592830328    -4.830306868
 H       -4.863244015    13.935439860     1.588033581
 C       -5.103421953    11.965736626     2.475291539
 C       -2.945075153    13.220741452     2.313218998
 H       -2.060897620    13.708247012    -0.566531080
 C       -2.776235022    13.294354322    -2.574219827
 C       -3.658248663    15.090094856    -1.071221715
 H       -0.115482647    -1.930181006    -1.522321680
 C       -2.136168936    -1.136406567    -1.578142384
 C       -0.193070908    -0.215932595    -2.855725521
 H       -1.784803271    -0.901251231     1.440660758
 C       -0.198897665    -2.368498986     1.636382847
 C       -0.301767185    -0.176573739     2.848348331
 H       -5.412961853    12.666292059   -17.100072856
 H       -3.707405691    12.625412030   -17.520585410
 H       -4.249133733    11.861586029   -16.031541110
 H       -3.361496098     9.050496861   -18.482447463
 H       -3.010926900     9.691432096   -16.863649925
 H       -2.561456129    10.603270780   -18.297301814
 H       -7.217204649     6.850211186   -16.648024775
 H       -7.236256438     6.125332731   -18.249839680
 H       -8.314056776     7.469185486   -17.895206807
 H       -5.566331177     8.854944942   -20.179041766
 H       -7.323534557     8.685431652   -20.010253591
 H       -6.314398784     7.266240887   -20.247857769
 H       -1.936573306     7.192853248    -3.874235261
 H       -1.530190214     8.888451115    -3.673979378
 H       -2.105388732     8.319716832    -5.236456560
 H       -4.942617334    10.373130786    -3.664058978
 H       -3.897174392    10.253652754    -5.092271716
 H       -3.212696484    10.667701579    -3.525607963
 H       -3.445393381     5.842985768    -2.245638927
 H       -3.815337996     4.181563275    -2.674974982
 H       -5.111358346     5.238605387    -2.125643679
 H       -5.628776915     4.781098028    -5.894053754
 H       -6.396988050     4.561959565    -4.311456099
 H       -5.015634515     3.575856510    -4.770645978
 H       -6.104645957    11.754468156     2.075227645
 H       -5.254247696    12.371887754     3.485348243
 H       -4.588612710    11.002926987     2.606861633
 H       -2.344498828    13.996415391     1.821088588
 H       -2.323985244    12.317411993     2.393827356
 H       -3.110269388    13.569912871     3.342956858
 H       -2.265973245    12.327431960    -2.684237541
 H       -2.118247952    14.041067597    -3.041736001
 H       -3.688615496    13.265103568    -3.186806158
 H       -3.798386340    15.478661066    -0.054414937
 H       -4.626406546    15.153430412    -1.588831678
 H       -2.991478529    15.800800712    -1.580418914
 H       -2.509930853    -1.707990424    -0.719244017
 H       -2.416589700    -1.711189837    -2.472968147
 H       -2.701840433    -0.195456731    -1.630489971
 H        0.893072071    -0.093974814    -2.955993707
 H       -0.651779712     0.776402901    -2.973468198
 H       -0.516275479    -0.809002425    -3.723283380
 H       -0.481620616    -2.972212165     0.764354128
 H       -0.664520261    -2.851483820     2.507885637
 H        0.885928562    -2.467788624     1.774535984
 H       -0.651949228     0.865238412     2.876024816
 H        0.776854940    -0.168442725     3.053863117
 H       -0.775469465    -0.682012869     3.702055629

