187   

Si        0.000000000     0.000000000     0.000000000
 C        1.865207554     0.000000000     0.000000000
 C       -0.675055008     1.712915521     0.000000000
 C        0.109879538     2.792251081    -0.418609448
 C       -0.406318376     4.087840821    -0.416669176
 C       -1.718100345     4.333814625    -0.002672075
 C       -2.505089938     3.250771286     0.410960173
 C       -1.992654234     1.956273415     0.410170629
 C       -2.299609357     5.672060073     0.015797055
 C       -1.653978288     6.790974124    -0.354464335
 C       -2.233292321     8.130090158    -0.336860104
 C       -3.545197606     8.378450291     0.076858590
 C       -4.058447931     9.675012760     0.077663774
 C       -3.263844868    10.752291649    -0.326301041
 C       -1.948755995    10.507995556    -0.742126277
 C       -1.443629771     9.210717304    -0.751803566
Si       -3.922817784    12.470025741    -0.332193384
 C       -2.525268671    13.644163014    -0.245217844
 C       -2.334959860    14.694521243    -1.053058240
 C       -1.198624174    15.613040246    -0.949051513
 C       -1.115690945    16.677745681    -1.859820303
 C       -0.063552465    17.577115355    -1.808540674
 C        0.962405498    17.398735199    -0.864479272
 C        0.894070485    16.334294676     0.040742400
 C       -0.187949305    15.459216505     0.001398831
 N        2.011993650    18.373386036    -0.878945222
 C        2.942000492    18.144455779    -2.009182305
 C        2.708617972    18.553616626     0.406926397
 C        3.796246054    16.865783152    -1.883756725
 C        4.264859260    16.342615371    -3.255457352
 N        3.503307052    15.185428135    -3.770389902
 C        2.152036923    15.438668011    -4.106953113
 C        1.866986666    16.529070484    -4.954507279
 C        0.558810013    16.813152888    -5.309481804
 C       -0.499597038    15.994893119    -4.888102579
 C       -0.208259729    14.890732306    -4.083086068
 C        1.097766084    14.602760249    -3.704024477
 C        3.761291032    13.955346098    -3.001758476
 C       -1.861251647    16.345495638    -5.294708656
 C       -2.955347313    15.648151167    -4.959519854
Si       -4.645977371    16.110641046    -5.482738403
 C       -4.644227363    16.976694046    -7.103755882
 C       -3.709016066    16.614013840    -8.080342224
 C       -3.689425598    17.257161030    -9.316491682
 C       -4.610430075    18.266810846    -9.610644644
 C       -5.550996013    18.622352461    -8.635216153
 C       -5.570012508    17.984388672    -7.397078789
 C       -4.627214889    18.967131659   -10.890746217
 C       -3.782447441    18.722719294   -11.906895045
 C       -3.797998153    19.422113856   -13.187416879
 C       -4.714349636    20.434667999   -13.482612843
 C       -4.693166726    21.077034765   -14.720568045
 C       -3.749929220    20.722449076   -15.690049034
 C       -2.829991944    19.706670266   -15.396453589
 C       -2.856611022    19.064048812   -14.162008085
Si       -3.708699039    21.560453129   -17.328564404
 C       -4.749504239    23.108537523   -17.335261993
 C       -1.898629297    21.983011316   -17.739194616
 C       -4.369941434    20.375013502   -18.663078504
 C       -5.704314112    14.537660358    -5.602813736
 C       -5.387639185    17.238333641    -4.138694011
 C       -4.851822479    12.687626588    -1.981932018
 C       -5.106236632    12.770344512     1.118260347
 C       -0.623716907    -0.912695730    -1.549301777
 C       -0.651922124    -0.914506197     1.537234059
 H        1.142980366     2.662853351    -0.752859814
 H        0.226523321     4.910830566    -0.743768895
 H       -3.529838854     3.420025078     0.736304318
 H       -2.654248690     1.151307466     0.742117572
 H       -3.336021657     5.716117035     0.362855075
 H       -0.617534242     6.746178508    -0.701805022
 H       -4.179956913     7.556350041     0.402168907
 H       -5.092017736     9.807672828     0.408534993
 H       -1.284660696    11.314888949    -1.070854425
 H       -0.421367869     9.037170286    -1.082461739
 H       -1.820387099    13.421877057     0.573391537
 H       -3.020015176    14.947695558    -1.874297676
 H       -1.896625741    16.811776478    -2.613100589
 H       -0.016991222    18.416920567    -2.500445365
 H        1.676369810    16.184710736     0.778136367
 H       -0.231670429    14.640233395     0.719595785
 H        3.349057134    19.449684992     0.331702228
 H        3.334573061    17.704496433     0.717713682
 H        1.962434672    18.749134372     1.197072834
 H        4.850317859    13.816454959    -2.892062589
 H        3.382233934    13.087566629    -3.571383419
 H        3.307335979    13.947050694    -1.997819240
 H        2.676576414    17.149346605    -5.329657020
 H        0.354320789    17.677017385    -5.943235622
 H       -1.012432611    14.238192546    -3.736292014
 H        1.278757527    13.744150953    -3.064534705
 H       -1.902396550    17.249547317    -5.919739753
 H       -2.892655920    14.745852186    -4.332045159
 H       -2.966599778    15.826732392    -7.908429300
 H       -2.947902299    16.961634184   -10.056690850
 H       -6.277556607    19.405117334    -8.844368228
 H       -6.327649709    18.304550843    -6.676893229
 H       -5.400131404    19.735782918   -10.981854451
 H       -3.010283057    17.952941637   -11.815678484
 H       -5.457127502    20.731403924   -12.744374527
 H       -5.434910256    21.861779587   -14.893061709
 H       -2.069887122    19.387649039   -16.115258793
 H       -2.134951649    18.276472161   -13.953130579
 H        2.330679791    18.106072899    -2.941958685
 H        3.594293681    19.039822940    -2.095713201
 H        4.668482816    17.059975211    -1.235773982
 H        3.211013783    16.080668489    -1.364221483
 H        4.233886245    17.151213227    -4.019097926
 H        5.334285033    16.034093865    -3.197259158
 H        2.262898930    -1.029461686     0.049441502
 H        2.260159267     0.551019178     0.872991182
 H        2.276263598     0.471553130    -0.909608399
 H       -4.685842732    23.626372472   -18.308989122
 H       -4.409133930    23.818229689   -16.559400071
 H       -5.814352737    22.886840713   -17.145847551
 H       -1.348700905    20.997312615   -17.760781199
 C       -1.720438139    22.652077738   -19.113626911
 C       -1.240985269    22.865062627   -16.662349267
 H       -4.366584196    20.966562309   -19.623984529
 C       -3.493201390    19.126934432   -18.869458255
 C       -5.815157708    19.921730861   -18.386441269
 H       -5.680777391    14.066135229    -4.575992815
 C       -7.173476888    14.823380434    -5.957885524
 C       -5.133724553    13.524380507    -6.610584562
 H       -6.425817875    17.498536075    -4.494766742
 C       -5.517288899    16.561490503    -2.762652250
 C       -4.592505484    18.546043264    -3.974992294
 H       -5.035266028    13.794930475    -2.099896737
 C       -4.001342349    12.204180257    -3.171151737
 C       -6.214370029    11.975811836    -2.023232114
 H       -5.950284545    12.031767618     0.991805112
 C       -4.445620557    12.505168861     2.482925615
 C       -5.709469290    14.186577040     1.117009553
 H       -0.148406952    -1.935325074    -1.515246368
 C       -2.151724540    -1.097003718    -1.575116048
 C       -0.187053054    -0.226059211    -2.856286617
 H       -1.776502342    -0.923332873     1.439304756
 C       -0.177368988    -2.375799217     1.628986723
 C       -0.298731101    -0.189479444     2.848561365
 H       -2.102465347    22.045889817   -19.945151716
 H       -0.651653269    22.813014601   -19.316896027
 H       -2.195853364    23.640053933   -19.173832913
 H       -1.279279676    22.422533391   -15.656591537
 H       -1.683823157    23.867862636   -16.599402147
 H       -0.176085059    23.011040968   -16.892933742
 H       -2.460819731    19.362221072   -19.157478580
 H       -3.904357817    18.509706498   -19.681593925
 H       -3.457567060    18.478950752   -17.982307042
 H       -6.526141487    20.753949995   -18.305554029
 H       -5.905212931    19.317030192   -17.472479748
 H       -6.175818454    19.289118527   -19.210141999
 H       -7.681674017    15.466808985    -5.228469650
 H       -7.743493442    13.883420815    -5.987305104
 H       -7.293781746    15.282859008    -6.949481372
 H       -4.095198427    13.233215329    -6.399970568
 H       -5.170021742    13.888322414    -7.647697305
 H       -5.725388484    12.598109601    -6.592337371
 H       -6.132674106    15.653055174    -2.779904054
 H       -6.004083663    17.245865057    -2.052513992
 H       -4.543973254    16.306864450    -2.318634038
 H       -4.507035732    19.125268122    -4.904523185
 H       -3.573728280    18.383236486    -3.593194104
 H       -5.091589704    19.204104911    -3.249871455
 H       -3.040279106    12.728796478    -3.263457640
 H       -4.539731910    12.366510161    -4.116562305
 H       -3.784435618    11.126585985    -3.132872505
 H       -6.914775719    12.330317828    -1.256526223
 H       -6.131908592    10.884701128    -1.922785692
 H       -6.703519279    12.155564370    -2.992019187
 H       -4.027847300    11.492879067     2.576095477
 H       -5.188639439    12.604627730     3.287135893
 H       -3.643176472    13.218705020     2.716292981
 H       -6.268632493    14.420890005     0.201893458
 H       -4.954103239    14.973302433     1.257624711
 H       -6.421133640    14.293383750     1.948034192
 H       -2.535749351    -1.669948568    -0.721643363
 H       -2.447631691    -1.654369731    -2.475818413
 H       -2.696619406    -0.143025101    -1.613562905
 H        0.901595949    -0.127791974    -2.955141032
 H       -0.624928417     0.775029408    -2.979456321
 H       -0.521539545    -0.815987700    -3.721725327
 H       -0.454137529    -2.978755777     0.754534623
 H       -0.639051720    -2.866268264     2.498337331
 H        0.908243790    -2.465650297     1.767336199
 H       -0.654809926     0.850239269     2.879407332
 H        0.779921929    -0.175190798     3.053953673
 H       -0.768934685    -0.700603683     3.700691153

