187   

Si        0.000000000     0.000000000     0.000000000
 C        1.865157166     0.000000000     0.000000000
 C       -0.684547930     1.708623033     0.000000000
 C        0.116916957     2.809532054    -0.318115709
 C       -0.414849190     4.099107447    -0.314248064
 C       -1.758431767     4.316687949     0.001252463
 C       -2.561384057     3.211997134     0.315822712
 C       -2.033273579     1.924162198     0.314524554
 C       -2.359354231     5.646011243     0.018488993
 C       -1.706850795     6.787274221    -0.260104527
 C       -2.314937927     8.113691490    -0.240776743
 C       -1.521676193     9.225441694    -0.551747684
 C       -2.060566963    10.510366534    -0.545623437
 C       -3.404491006    10.713173193    -0.214556503
 C       -4.199249209     9.603333186     0.098495118
 C       -3.660121096     8.318889464     0.080407615
Si       -4.157506436    12.390635254    -0.193582337
 C       -5.403278546    12.531812491     1.137768536
 C       -5.324764539    11.839013494     2.282104327
 C       -6.297815467    11.921777638     3.371400054
 C       -6.089962793    11.137267573     4.515895840
 C       -6.977977538    11.175114065     5.577676076
 C       -8.135423318    11.976563043     5.505358810
 C       -8.343309571    12.766051018     4.364020572
 C       -7.418615017    12.753003431     3.325439480
 N       -9.012843456    11.981094679     6.618101113
 C       -9.477023648    10.653865000     7.070502972
 C      -10.095121522    12.979451625     6.584117660
 C      -10.410648594     9.923419794     6.086576134
 C       -9.647485927     8.936282444     5.181123314
 N      -10.280457965     8.654950565     3.873667684
 C      -10.070870857     9.732916959     2.943241043
 C       -8.971938867     9.591642764     2.082895161
 C       -8.693439138    10.582554746     1.152751939
 C       -9.482668556    11.740182558     1.080714380
 C      -10.580197250    11.865508131     1.936703420
 C      -10.890738924    10.861608011     2.848350159
 C      -11.690568177     8.239644009     3.982343767
 C       -9.149919199    12.760102651     0.081380492
 C       -9.835171191    13.899562984    -0.072901477
Si       -9.484613324    15.215871096    -1.290829788
 C      -11.018816350    15.657719557    -2.198268686
 C      -12.064235778    14.733881329    -2.300709380
 C      -13.232190619    15.061592650    -2.987876016
 C      -13.375351844    16.310936813    -3.598018142
 C      -12.323356700    17.231411481    -3.499570242
 C      -11.157898066    16.910161645    -2.808347818
 C      -14.579161120    16.696434577    -4.327037567
 C      -15.655992415    15.910250381    -4.494647132
 C      -16.860425597    16.294281434    -5.223330483
 C      -17.009366107    17.544647762    -5.828735103
 C      -18.178921043    17.869694489    -6.515813045
 C      -19.224025755    16.946352846    -6.617942116
 C      -19.076639187    15.690879750    -6.012540706
 C      -17.910447938    15.371401462    -5.322887041
Si      -20.774108244    17.359224005    -7.521006353
 C      -20.583827480    18.911085689    -8.538511148
 C      -21.219392671    15.887575398    -8.643208906
 C      -22.187307478    17.617077200    -6.272175057
 C       -8.771886488    16.702180629    -0.344246906
 C       -8.200966077    14.635819552    -2.569345333
 C       -2.851496003    13.749159435     0.041687720
 C       -5.030515214    12.658044947    -1.862919635
 C       -0.613704739    -0.921848306    -1.548205585
 C       -0.653719833    -0.908190660     1.540346290
 H        1.174811463     2.701676976    -0.572910774
 H        0.230785919     4.939514948    -0.562519341
 H       -3.610767775     3.359606888     0.564130061
 H       -2.708169748     1.101840332     0.568494076
 H       -3.421039268     5.663294791     0.282936025
 H       -0.645876131     6.772687590    -0.525050871
 H       -0.472046711     9.087391726    -0.804048340
 H       -1.394803585    11.338624047    -0.802111445
 H       -5.257373579     9.703196515     0.366287735
 H       -4.298771913     7.471588947     0.324183469
 H       -6.221745860    13.242899535     0.949558488
 H       -4.509819670    11.129931900     2.491522578
 H       -5.212224443    10.492669012     4.576988303
 H       -6.779058279    10.591645624     6.473001835
 H       -9.229565632    13.385598018     4.268115449
 H       -7.599226448    13.380692641     2.449694274
 H      -10.613595211    12.982592291     7.558060580
 H      -10.842705914    12.811787863     5.792878066
 H       -9.655133716    13.984371810     6.449492260
 H      -11.739473727     7.325079455     4.597520289
 H      -12.061739107     7.982124760     2.974603811
 H      -12.366117362     8.989522501     4.418074472
 H       -8.348152918     8.701228649     2.157397649
 H       -7.838630832    10.464591136     0.485662216
 H      -11.214383068    12.750906945     1.889026958
 H      -11.762844895    10.963867520     3.486969372
 H       -8.282484205    12.495655906    -0.538688569
 H      -10.699698831    14.134419624     0.572060502
 H      -12.005932138    13.738375045    -1.848020767
 H      -14.035205136    14.329078346    -3.048056793
 H      -12.415262886    18.209612373    -3.967568587
 H      -10.371853460    17.668685684    -2.761937521
 H      -14.555611484    17.705634644    -4.748424795
 H      -15.678897236    14.900570004    -4.073858567
 H      -16.209124726    18.279944528    -5.767551972
 H      -18.237472414    18.863723803    -6.967750337
 H      -19.859669008    14.928815755    -6.060422868
 H      -17.814925934    14.391721537    -4.858401098
 H       -8.586116084    10.028310882     7.301405902
 H       -9.997103304    10.801987662     8.045030313
 H      -11.196306668     9.385105984     6.645726430
 H      -10.945425937    10.665821939     5.463963138
 H       -8.617532410     9.315879162     4.979080707
 H       -9.526632876     7.958426411     5.697947155
 H        2.262497349    -1.029765400     0.045471109
 H        2.261248658     0.547499641     0.874599824
 H        2.275209237     0.474664202    -0.908582465
 H      -21.505262897    19.129027240    -9.107530719
 H      -19.760300642    18.808014447    -9.268299713
 H      -20.367177020    19.790579734    -7.907173682
 H      -21.362335383    15.005089952    -7.953788666
 C      -22.527515687    16.088015503    -9.428799881
 C      -20.090895833    15.535780104    -9.629383934
 H      -23.082987453    17.925072982    -6.885535151
 C      -22.560903899    16.345134610    -5.490155396
 C      -21.887261851    18.743761347    -5.266421074
 H       -8.533695935    17.483821091    -1.121812113
 C       -9.780977606    17.309961879     0.645936028
 C       -7.471476412    16.363322243     0.407821441
 H       -7.351104044    14.181812309    -1.977618127
 C       -8.766577702    13.551620239    -3.504396039
 C       -7.625748749    15.777837184    -3.424315437
 H       -2.123654963    13.638911233    -0.813039503
 C       -3.444330381    15.169156663    -0.018441072
 C       -2.070212375    13.588282032     1.357837649
 H       -5.601956995    13.628171152    -1.764517080
 C       -4.056890089    12.801928194    -3.045040879
 C       -6.033195983    11.534480428    -2.179887728
 H       -0.121601827    -1.936689012    -1.514428398
 C       -2.138200404    -1.132407130    -1.575038927
 C       -0.188627057    -0.228522353    -2.855596019
 H       -1.778192841    -0.916856156     1.441028373
 C       -0.179283156    -2.368982355     1.639096475
 C       -0.302568364    -0.177054378     2.848807675
 H      -23.397179895    16.274546667    -8.785560849
 H      -22.761201519    15.181191930   -10.005505996
 H      -22.468373947    16.907399254   -10.157409324
 H      -19.131985435    15.325276577    -9.134320680
 H      -19.912282774    16.321165503   -10.375675687
 H      -20.351196622    14.627931472   -10.192032129
 H      -22.866705309    15.511001874    -6.134162781
 H      -23.415050829    16.549398697    -4.828022200
 H      -21.748879599    15.990290546    -4.839943440
 H      -21.688353514    19.712505673    -5.742509452
 H      -21.035359527    18.514481337    -4.610106155
 H      -22.751946458    18.898492572    -4.605203085
 H      -10.727159990    17.611439242     0.175624160
 H       -9.363158778    18.220122364     1.099363351
 H      -10.023929680    16.635021483     1.478487927
 H       -6.671740317    15.992906060    -0.247426116
 H       -7.619824992    15.621815401     1.206461902
 H       -7.074712186    17.264381157     0.896947415
 H       -9.129221741    12.661216284    -2.972296825
 H       -7.987097376    13.204935267    -4.197761534
 H       -9.591244316    13.916537519    -4.133747688
 H       -7.109643739    16.546560118    -2.835224574
 H       -8.386435310    16.278987159    -4.038908551
 H       -6.880273701    15.380419069    -4.128824575
 H       -3.952126524    15.389488255    -0.966208605
 H       -2.642207096    15.914700794     0.079612088
 H       -4.150835790    15.371190124     0.799285648
 H       -1.568546494    12.615410759     1.452884152
 H       -2.702212798    13.721063879     2.248386581
 H       -1.280054338    14.349190307     1.424618450
 H       -3.364303813    13.646625749    -2.940202117
 H       -4.617082834    12.979061758    -3.974675465
 H       -3.456437266    11.898001218    -3.219208114
 H       -6.795356339    11.392648350    -1.401329642
 H       -5.545746331    10.562896336    -2.346203563
 H       -6.577812275    11.765159395    -3.107203934
 H       -2.514207098    -1.704987358    -0.717819533
 H       -2.422533717    -1.702037473    -2.471869770
 H       -2.699033624    -0.188285067    -1.623054856
 H        0.898119284    -0.110689998    -2.954119907
 H       -0.643845785     0.764700077    -2.979475034
 H       -0.512252219    -0.824888042    -3.720700824
 H       -0.454796676    -2.975741587     0.766892709
 H       -0.642189454    -2.855589165     2.509976996
 H        0.906120186    -2.458250306     1.779367250
 H       -0.660770339     0.862094942     2.874715838
 H        0.775795628    -0.160099498     3.055200012
 H       -0.772956094    -0.685205174     3.702618224

