187   

Si        0.000000000     0.000000000     0.000000000
 C        1.866464749     0.000000000     0.000000000
 C       -0.673728013     1.712087966     0.000000000
 C        0.139441966     2.786323058     0.374296109
 C       -0.363192532     4.086185286     0.376984709
 C       -1.687095757     4.342981596     0.010496802
 C       -2.502677344     3.265513807    -0.359910090
 C       -2.004071106     1.965052993    -0.362782437
 C       -2.238553077     5.694450314     0.004640441
 C       -1.540777042     6.792183884     0.343254207
 C       -2.058842740     8.154978796     0.348741479
 C       -1.200863256     9.196041083     0.728684006
 C       -1.646848325    10.514649099     0.750561907
 C       -2.965851389    10.823578758     0.394707449
 C       -3.824227642     9.785799882     0.016372126
 C       -3.373249074     8.467119552    -0.005659158
Si       -3.557278915    12.564609621     0.422830530
 C       -4.928259562    12.835283335    -0.756348323
 C       -5.072817173    12.149527500    -1.898091357
 C       -6.163526296    12.353990339    -2.851701201
 C       -6.197813062    11.568237688    -4.010021753
 C       -7.209225532    11.720442658    -4.947563176
 C       -8.178501837    12.725566281    -4.791000975
 C       -8.137063280    13.527283430    -3.633335613
 C       -7.157190556    13.322682766    -2.672983416
 N       -9.233096961    12.929892446    -5.712553052
 C       -9.359225903    11.978385839    -6.825103367
 C       -9.437632170    14.330993424    -6.124202284
 C       -8.350375209    12.170484293    -7.974522294
 C       -8.301151509    10.942627004    -8.903920457
 N       -7.305038775     9.918060627    -8.542542000
 C       -7.556080522     9.106629135    -7.422204851
 C       -8.879922892     8.730888607    -7.107587355
 C       -9.139491517     7.932008211    -6.006677521
 C       -8.097953917     7.397153144    -5.234374905
 C       -6.784905613     7.733419767    -5.571203744
 C       -6.510148534     8.575423527    -6.642330376
 C       -5.919657671    10.380334712    -8.731652699
 C       -8.441333175     6.560883676    -4.084018249
 C       -7.553604720     5.986542658    -3.261388963
Si       -8.008719580     4.944436726    -1.828676657
 C       -7.084198279     3.354651979    -1.843281022
 C       -6.415728314     2.922376315    -2.994583355
 C       -5.718501668     1.716195800    -2.994071882
 C       -5.683075760     0.909427844    -1.850002536
 C       -6.354396428     1.342904478    -0.702564191
 C       -7.044994790     2.552986618    -0.696468400
 C       -4.940576901    -0.345741427    -1.894469888
 C       -4.826377162    -1.197482479    -0.861450257
 C       -4.086987290    -2.454148854    -0.895071020
 C       -3.411147952    -2.901684542    -2.032644255
 C       -2.716369028    -4.111363072    -2.018718713
 C       -2.668926361    -4.890512878    -0.858981099
 C       -3.345646273    -4.443326331     0.284124143
 C       -4.051486904    -3.244484195     0.262054465
Si       -1.758170227    -6.489006949    -0.819469116
 C       -0.642336637    -6.670936021    -2.303099131
 C       -0.732128567    -6.528224779     0.784920944
 C       -2.992803931    -7.935043481    -0.790595892
 C       -7.559961297     5.899676802    -0.242443077
 C       -9.875994808     4.584410442    -1.815818712
 C       -4.188570427    12.966653779     2.171576981
 C       -2.130424682    13.746933955    -0.006319875
 C       -0.642133249    -0.920588338    -1.536024892
 C       -0.640833499    -0.936926268     1.528953812
 H        1.183107466     2.650985969     0.670116622
 H        0.292170448     4.904084050     0.670380884
 H       -3.538147479     3.441356420    -0.649825359
 H       -2.687908314     1.161919461    -0.658614946
 H       -3.285484119     5.764632748    -0.303248359
 H       -0.492878823     6.707410874     0.648456934
 H       -0.173217820     8.974682030     1.009592235
 H       -0.931524222    11.283680818     1.054304645
 H       -4.867495370     9.967490428    -0.264988391
 H       -4.058857897     7.676803266    -0.308282254
 H       -5.637475438    13.624828774    -0.467826772
 H       -4.369594976    11.363959860    -2.212800757
 H       -5.435825321    10.804309389    -4.172138089
 H       -7.228901733    11.053676483    -5.806427690
 H       -8.894453840    14.290025447    -3.475559033
 H       -7.160952355    13.937052803    -1.772420294
 H      -10.283443941    14.391688653    -6.828734564
 H       -8.550338310    14.779104606    -6.598513432
 H       -9.706965374    14.939651110    -5.243540864
 H       -5.849824345    11.007850948    -9.635486981
 H       -5.267151725     9.503833054    -8.900528018
 H       -5.526867510    10.958860594    -7.878662444
 H       -9.707154154     9.068029540    -7.726050437
 H      -10.174355667     7.695103965    -5.755398832
 H       -5.955061085     7.338241816    -4.982351696
 H       -5.475214052     8.818827280    -6.860295674
 H       -9.527120495     6.443902377    -3.956919581
 H       -6.469731088     6.124327919    -3.398949017
 H       -6.415363129     3.509420158    -3.918482958
 H       -5.196894519     1.400437864    -3.895730166
 H       -6.339168101     0.737046181     0.201603489
 H       -7.544023796     2.844180663     0.232216155
 H       -4.461090319    -0.562179732    -2.853386464
 H       -5.309668404    -0.977657505     0.095596690
 H       -3.424993836    -2.309277047    -2.946145215
 H       -2.216517045    -4.415923095    -2.942320397
 H       -3.342989147    -5.011285455     1.218670919
 H       -4.578207341    -2.918018682     1.157049447
 H       -9.283712048    10.950209485    -6.397476091
 H      -10.399272733    12.064523666    -7.216533340
 H       -8.621934959    13.067774600    -8.559971393
 H       -7.344685517    12.386153871    -7.566394720
 H       -9.303800013    10.463822904    -8.971650354
 H       -8.067321326    11.272214140    -9.944223067
 H        2.262985010    -1.030888223     0.005001383
 H        2.277383061     0.518962608     0.883020389
 H        2.259817141     0.504038492    -0.901075202
 H       -0.070883557    -7.615224338    -2.257357510
 H        0.088657313    -5.843546326    -2.354438410
 H       -1.214450192    -6.675453892    -3.247318302
 H       -1.480759253    -6.536484426     1.629839885
 C        0.142909275    -7.786710750     0.919101137
 C        0.152825097    -5.279543897     0.954206779
 H       -2.364614057    -8.872422813    -0.806200099
 C       -3.872061339    -7.973472510     0.472146808
 C       -3.908255883    -7.953272431    -2.028513305
 H       -8.068332766     5.356314718     0.604642022
 C       -6.046216832     5.897344128     0.031872321
 C       -8.067160840     7.351759341    -0.254918489
 H      -10.385294330     5.588472235    -1.897050384
 C      -10.312381459     3.723337400    -3.015596093
 C      -10.369359871     3.909588351    -0.523529813
 H       -4.530150137    14.041198981     2.142107524
 C       -5.391949798    12.092002988     2.567650630
 C       -3.100864637    12.839802645     3.252322044
 H       -1.349423290    13.600986816     0.794575274
 C       -1.489025166    13.416203033    -1.365987080
 C       -2.548052419    15.228282328     0.002541804
 H       -1.730652780    -1.142413082    -1.324460750
 C       -0.574552575    -0.080668327    -2.823802623
 C        0.076770831    -2.259450601    -1.777685403
 H       -0.451087786    -2.029574238     1.319385868
 C        0.099611365    -0.565251767     2.826277029
 C       -2.151021825    -0.749215278     1.755380119
 H       -0.429511828    -8.722167067     0.875607407
 H        0.654891400    -7.786308267     1.892503591
 H        0.932517215    -7.842452208     0.157961860
 H       -0.419641139    -4.340029613     0.943678569
 H        0.937134890    -5.201329598     0.189756731
 H        0.669253913    -5.312074500     1.924261220
 H       -3.296019073    -8.047227952     1.403154274
 H       -4.526061271    -8.857515012     0.446815850
 H       -4.538679100    -7.103504385     0.554739136
 H       -3.359370884    -8.006374494    -2.977535887
 H       -4.576226155    -7.081356754    -2.078552156
 H       -4.560273818    -8.838265447    -2.001770861
 H       -5.629769214     4.886838821     0.152525198
 H       -5.833072625     6.428115219     0.971994114
 H       -5.474191776     6.405259893    -0.757895602
 H       -9.155855984     7.432503561    -0.365600655
 H       -7.610108642     7.960381956    -1.049968487
 H       -7.818107163     7.847134230     0.694781841
 H      -10.033451912     4.148422105    -3.989472398
 H      -11.406342056     3.617782323    -3.026679966
 H       -9.905471714     2.702569658    -2.976479307
 H      -10.180349977     4.503670943     0.379500837
 H       -9.935991285     2.911743927    -0.368783138
 H      -11.458727028     3.764083421    -0.569604614
 H       -6.236602067    12.169458525     1.869232285
 H       -5.775054133    12.400324884     3.550522439
 H       -5.133611565    11.026927290     2.658742657
 H       -2.244286143    13.506027999     3.089163338
 H       -2.714531978    11.815180936     3.352255968
 H       -3.514636519    13.107370929     4.235399328
 H       -1.106208418    12.387861612    -1.428497759
 H       -0.629868548    14.076381404    -1.549419565
 H       -2.177736196    13.563725220    -2.210396903
 H       -2.952046765    15.562011253     0.966715059
 H       -3.289527644    15.466992903    -0.772835786
 H       -1.675426439    15.865508084    -0.201148475
 H       -1.120274289     0.870967726    -2.749648515
 H       -1.027970391    -0.633217276    -3.658273612
 H        0.453447091     0.153934847    -3.128758841
 H        0.022590871    -2.943623759    -0.919952873
 H        1.133802695    -2.137067168    -2.045184892
 H       -0.396811619    -2.791690682    -2.615824690
 H        1.179666356    -0.752334049     2.779337748
 H       -0.281914513    -1.168829667     3.662102185
 H       -0.045865488     0.485011369     3.114440166
 H       -2.759645721    -1.036317382     0.886143554
 H       -2.417071732     0.284354949     2.019200860
 H       -2.488162132    -1.380749067     2.588850487

