187   

Si        0.000000000     0.000000000     0.000000000
 C        1.865515604     0.000000000     0.000000000
 C       -0.669093978     1.714698895     0.000000000
 C        0.092470319     2.773142229    -0.506547813
 C       -0.413540956     4.071865486    -0.506877523
 C       -1.690938195     4.344713186    -0.010887865
 C       -2.454802560     3.282056034     0.489336152
 C       -1.952935955     1.983068238     0.492448123
 C       -2.255955211     5.689990895     0.006081397
 C       -1.624096538     6.787446719    -0.442967671
 C       -2.179596262     8.136082581    -0.430584894
 C       -1.397133238     9.184276401    -0.935285416
 C       -1.881110684    10.487890650    -0.945756825
 C       -3.163239889    10.774883202    -0.451659931
 C       -3.944297111     9.732892109     0.052591107
 C       -3.453816872     8.426003829     0.063532311
Si       -3.743750711    12.514059257    -0.493149853
 C       -5.538160632    12.768817183    -0.253911716
 C       -6.064405779    13.637554499     0.619322190
 C       -7.498474732    13.847481304     0.816917886
 C       -7.912351808    14.792831194     1.768791040
 C       -9.255882558    15.032901154     1.997802915
 C      -10.234427833    14.375832783     1.222408503
 C       -9.823495010    13.437855493     0.262352498
 C       -8.471018863    13.166010292     0.084285141
 N      -11.594719579    14.652105476     1.491886886
 C      -11.947077857    16.088030414     1.564877341
 C      -12.586232195    13.852097503     0.753833980
 C      -11.231801816    17.017856191     0.568412533
 C      -11.389047330    16.564370398    -0.893090037
 N      -10.777977510    17.491412577    -1.861755802
 C       -9.383256210    17.683552011    -1.783211545
 C       -8.540158720    16.609335153    -1.428674616
 C       -7.168506828    16.786872139    -1.348482575
 C       -6.575958601    18.020184563    -1.660635795
 C       -7.409546057    19.073782808    -2.041725525
 C       -8.788456467    18.915823063    -2.113027559
 C      -11.600931784    18.690737942    -2.092941064
 C       -5.121792988    18.160066188    -1.561126988
 C       -4.449106620    19.287324057    -1.833685955
Si       -2.629615620    19.450809716    -1.705718361
 C       -1.828806144    17.830240341    -2.048748665
 C       -2.126716336    17.178942500    -3.254299479
 C       -1.543555013    15.951761425    -3.554121663
 C       -0.614080117    15.366416221    -2.683585728
 C       -0.304816339    16.027363824    -1.492523126
 C       -0.908235978    17.244455159    -1.175891426
 C       -0.035376969    14.078426899    -3.050169046
 C        0.844012687    13.389604315    -2.303387389
 C        1.416195538    12.102119888    -2.680238825
 C        1.093667949    11.457040693    -3.876933079
 C        1.664130906    10.226006883    -4.198601643
 C        2.554021437     9.603069545    -3.317563467
 C        2.867931587    10.241869230    -2.110534443
 C        2.303069006    11.474547234    -1.795747053
Si        3.310645284     7.978095929    -3.735903269
 C        3.288235590     7.663624410    -5.573377824
 C        5.096545157     7.936267426    -3.080613643
 C        2.319509733     6.613828144    -2.850168213
 C       -2.018493452    20.760643971    -2.938462843
 C       -2.211043491    20.033012393     0.059098739
 C       -2.767089733    13.498026152     0.812594595
 C       -3.404478320    13.232993092    -2.226654817
 C       -0.627575243    -0.901120783    -1.554638850
 C       -0.651449840    -0.922673140     1.532215566
 H        1.098263586     2.624319224    -0.908920201
 H        0.201961903     4.880187027    -0.901781060
 H       -3.452939593     3.470538280     0.879932221
 H       -2.595809876     1.195058964     0.893951648
 H       -3.265123037     5.758584721     0.421430640
 H       -0.612270856     6.717327028    -0.857871523
 H       -0.400168359     8.980773504    -1.325204209
 H       -1.225142149    11.264004035    -1.357567675
 H       -4.948523083     9.902862718     0.450281702
 H       -4.078595620     7.629397300     0.462082262
 H       -6.175343319    12.148220229    -0.902825813
 H       -5.448749693    14.274027034     1.270615681
 H       -7.166601063    15.336506099     2.350323353
 H       -9.560099563    15.731123073     2.773147741
 H      -10.548495487    12.912411123    -0.350616804
 H       -8.174448122    12.421384711    -0.655815700
 H      -13.588864363    14.042610235     1.174388470
 H      -12.378395008    12.778133081     0.912729419
 H      -12.616480970    14.052298941    -0.328295709
 H      -12.666313003    18.411006181    -2.143010625
 H      -11.339440040    19.123190604    -3.076286487
 H      -11.481458121    19.464951721    -1.318188430
 H       -8.961771065    15.632341978    -1.195542703
 H       -6.542452752    15.942991468    -1.043959462
 H       -6.978758676    20.043791274    -2.292338531
 H       -9.394006541    19.763462654    -2.414106738
 H       -4.621451014    17.232264698    -1.245293539
 H       -4.970727855    20.204741049    -2.141782457
 H       -2.837799068    17.592668450    -3.977385367
 H       -1.801645048    15.449583311    -4.485105982
 H        0.420671935    15.601731858    -0.801637821
 H       -0.627896860    17.711704258    -0.228186540
 H       -0.373749207    13.684243414    -4.013937916
 H        1.194348865    13.783735438    -1.344924824
 H        0.395486498    11.915358616    -4.575130011
 H        1.382109674     9.774213368    -5.153563667
 H        3.553165506     9.799943521    -1.381910171
 H        2.557074567    11.953839361    -0.852159897
 H      -13.047938495    16.197828146     1.456396508
 H      -11.707875828    16.419292757     2.604983534
 H      -11.619326174    18.046160338     0.691409338
 H      -10.149927518    17.082126525     0.811968947
 H      -10.926411527    15.559061852    -1.038917377
 H      -12.464108863    16.444733161    -1.151251472
 H        2.263268384    -1.028673451     0.060865200
 H        2.259328583     0.560795445     0.867318826
 H        2.276943760     0.462192715    -0.914060314
 H        3.776970395     6.704072269    -5.819540111
 H        3.829177070     8.460022751    -6.116294514
 H        2.259881540     7.624182071    -5.973090076
 H        5.024400922     8.081730351    -1.963541006
 C        5.810708251     6.596308005    -3.332795905
 C        5.958521182     9.078027175    -3.649262626
 H        2.833433895     5.644492194    -3.112876056
 C        2.330048242     6.763553995    -1.318723382
 C        0.863006563     6.529298244    -3.338901060
 H       -2.529212904    21.722036068    -2.639189706
 C       -0.497476555    20.984583017    -2.868908218
 C       -2.410301414    20.453190914    -4.394775564
 H       -1.086572640    20.000726137     0.140293559
 C       -2.665062703    21.474747552     0.349383367
 C       -2.801350088    19.103977750     1.136474293
 H       -3.098730097    14.571336471     0.706467819
 C       -3.068778651    13.031625001     2.249493548
 C       -1.244608392    13.446107047     0.604454279
 H       -2.304194806    13.480220389    -2.250710035
 C       -3.691680306    12.231607000    -3.358688371
 C       -4.196010124    14.524963696    -2.490389451
 H       -0.158705472    -1.926711897    -1.527470954
 C       -2.156820878    -1.074716114    -1.580153120
 C       -0.186943241    -0.208630218    -2.857380682
 H       -1.776530472    -0.923479912     1.439110089
 C       -0.186540059    -2.388047244     1.609328228
 C       -0.287298960    -0.211897575     2.848349590
 H        5.291464550     5.736531273    -2.890027505
 H        6.813312439     6.614885911    -2.880895980
 H        5.959925045     6.384323185    -4.399850228
 H        5.537292030    10.075840076    -3.461130806
 H        6.128283327     8.989773012    -4.730687849
 H        6.952369054     9.070699710    -3.179147603
 H        3.339042284     6.781826279    -0.887037252
 H        1.821723422     5.907526735    -0.849712592
 H        1.804976591     7.665906006    -0.973214703
 H        0.773044222     6.374237149    -4.422024098
 H        0.271219293     7.420762098    -3.084879536
 H        0.353594793     5.672448957    -2.872925692
 H       -0.148230118    21.304536786    -1.878705105
 H       -0.200949497    21.777698332    -3.570480731
 H        0.080166357    20.093421771    -3.153235860
 H       -3.486244766    20.279276761    -4.532040162
 H       -1.875156899    19.585064624    -4.804569529
 H       -2.151302418    21.304054952    -5.041046343
 H       -2.207065358    22.217658253    -0.316056414
 H       -2.376126608    21.760938007     1.371074758
 H       -3.755262928    21.599869614     0.293474703
 H       -2.504316579    18.052205460     1.025578031
 H       -3.901138267    19.132316116     1.162518896
 H       -2.460474996    19.418242646     2.132603984
 H       -4.134585424    13.053342213     2.511706939
 H       -2.558726207    13.684271210     2.971498945
 H       -2.707498463    12.012313270     2.448320859
 H       -0.934438154    13.757583188    -0.402127814
 H       -0.823956060    12.447037423     0.788158573
 H       -0.745040011    14.125761667     1.308583043
 H       -3.121815276    11.296044259    -3.268517165
 H       -3.411865620    12.669071403    -4.327258906
 H       -4.753961392    11.964742571    -3.435783842
 H       -3.929531355    15.337520975    -1.799488436
 H       -5.285245787    14.385370686    -2.449050603
 H       -3.978144281    14.903928358    -3.499492955
 H       -2.543305491    -1.654016000    -0.732031328
 H       -2.458219931    -1.620091164    -2.486260515
 H       -2.695350120    -0.116598313    -1.606604146
 H        0.902343204    -0.119890388    -2.957284026
 H       -0.616183532     0.797258825    -2.972253397
 H       -0.528391501    -0.789222816    -3.726345229
 H       -0.473506912    -2.981990012     0.732009842
 H       -0.646037248    -2.882002089     2.477864534
 H        0.899227914    -2.486855238     1.739684545
 H       -0.633268998     0.830885142     2.889394060
 H        0.792189268    -0.209310657     3.049839834
 H       -0.759123495    -0.725976409     3.697802618

