187   

Si        0.000000000     0.000000000     0.000000000
 C        1.865069797     0.000000000     0.000000000
 C       -0.642835082     1.726418712     0.000000000
 C       -0.042639698     2.682698952     0.828006970
 C       -0.508125144     3.996622235     0.848576854
 C       -1.577049282     4.390553013     0.038043296
 C       -2.177666727     3.432078378    -0.787972094
 C       -1.721579066     2.115717797    -0.802811903
 C       -2.094260731     5.755452280     0.029825896
 C       -1.607096098     6.754739276     0.784678583
 C       -2.109610929     8.124474476     0.790957410
 C       -1.492458066     9.055761014     1.637805395
 C       -1.930728751    10.375377110     1.684152282
 C       -2.985222226    10.804190405     0.866006643
 C       -3.597625481     9.879160056     0.015686158
 C       -3.165755915     8.552327122    -0.017115313
Si       -3.535174899    12.557300535     0.957076260
 C       -4.961210837    12.876947603    -0.147066428
 C       -5.039300299    13.883663743    -1.027140682
 C       -6.185120325    14.131578866    -1.906927682
 C       -6.133706100    15.224382523    -2.782109810
 C       -7.190710666    15.507942851    -3.639157938
 C       -8.333250197    14.696991710    -3.630141502
 C       -8.389276484    13.599281641    -2.758582742
 C       -7.324273700    13.318668937    -1.913502995
 N       -9.472974699    14.910007091    -4.476632302
 C      -10.578403448    15.569654065    -3.733122475
 C       -9.149263705    15.599788105    -5.740669720
 C      -11.912788159    15.450773902    -4.491190193
 C      -12.413238833    13.994635769    -4.585657518
 N      -13.341349493    13.580348557    -3.509719936
 C      -12.760253549    13.597858523    -2.214273512
 C      -11.657028567    12.747883546    -1.996286845
 C      -11.040893503    12.713098030    -0.758123268
 C      -11.542659964    13.462769450     0.318032032
 C      -12.656259977    14.276313858     0.107459804
 C      -13.264004393    14.348790716    -1.143063661
 C      -14.668379095    14.207827031    -3.628215370
 C      -10.841913822    13.379215643     1.599103862
 C      -11.197723984    14.032422485     2.713623458
Si      -10.252476365    13.861292390     4.272854706
 C       -9.486089857    12.190810041     4.357284481
 C      -10.163780848    11.091413866     3.813136464
 C       -9.601701063     9.819782637     3.866590345
 C       -8.358269962     9.611434485     4.478234475
 C       -7.689539710    10.707478071     5.028956621
 C       -8.247548211    11.984524840     4.971739260
 C       -7.812581758     8.259782724     4.507947533
 C       -6.633240201     7.918993394     5.054321656
 C       -6.098669791     6.561679536     5.077225696
 C       -6.782341929     5.477293913     4.520952720
 C       -6.238300907     4.194408105     4.562662915
 C       -5.000045120     3.967592275     5.172108128
 C       -4.311224904     5.053534317     5.728445063
 C       -4.851745841     6.335458985     5.674489246
Si       -4.280808440     2.274775411     5.227859991
 C       -5.573256533     0.956673640     4.964342727
 C       -2.995940093     2.176005612     3.826882552
 C       -3.390471705     2.009298761     6.886883326
 C       -8.901730602    15.200725729     4.287956582
 C      -11.410667756    14.108337439     5.755806839
 C       -4.074262500    12.900082969     2.748337997
 C       -2.096783298    13.718846746     0.504730438
 C       -0.651092087    -0.937053614    -1.523526321
 C       -0.635972639    -0.896905002     1.555174641
 H        0.804623199     2.438606600     1.475694669
 H       -0.023635089     4.720495116     1.501879183
 H       -3.012840144     3.715282573    -1.426118578
 H       -2.235778801     1.412399043    -1.463427958
 H       -2.933884844     5.926071557    -0.649393902
 H       -0.769067779     6.576124357     1.465834772
 H       -0.666650399     8.743753175     2.274040846
 H       -1.421634581    11.050355093     2.378135772
 H       -4.422861078    10.158744460    -0.645871119
 H       -3.662979198     7.848872583    -0.682336585
 H       -5.793187648    12.164030332    -0.021176063
 H       -4.230817992    14.614024022    -1.166196371
 H       -5.254439169    15.867717474    -2.793623921
 H       -7.128580596    16.366568435    -4.301135780
 H       -9.271007098    12.960203135    -2.767503757
 H       -7.383779099    12.457873643    -1.246754908
 H       -9.983897950    15.442246882    -6.445516809
 H       -8.256406000    15.137840673    -6.195514358
 H       -8.976191585    16.681342765    -5.640016394
 H      -15.082583731    13.974832172    -4.624501676
 H      -14.670890152    15.301020962    -3.499043072
 H      -15.350294943    13.761180685    -2.883299514
 H      -11.298056338    12.120136499    -2.810966129
 H      -10.169873394    12.072955157    -0.608950870
 H      -13.059740287    14.870121080     0.927522043
 H      -14.119078502    15.002846855    -1.278063157
 H       -9.968770721    12.708043455     1.560775600
 H      -12.062196989    14.707850607     2.742092980
 H      -11.142473337    11.192995361     3.331752384
 H      -10.138428196     8.978798093     3.431829250
 H       -6.725519380    10.569023880     5.515206850
 H       -7.679046201    12.803349373     5.420825990
 H       -8.446652951     7.501775630     4.038570073
 H       -5.994535653     8.673015927     5.522773376
 H       -7.750214673     5.626515472     4.046180885
 H       -6.817687615     3.386457728     4.107689654
 H       -3.338516787     4.935433443     6.213460393
 H       -4.298383342     7.168433321     6.103793286
 H      -10.674139554    15.072565353    -2.737904460
 H      -10.357203853    16.640345884    -3.531338903
 H      -12.665772682    16.082161907    -3.982599367
 H      -11.811141597    15.870722434    -5.508325736
 H      -12.928991646    13.829004163    -5.556174195
 H      -11.540065798    13.298289576    -4.584456970
 H        2.264442562    -1.029285123    -0.026173310
 H        2.277794903     0.496282857     0.895352249
 H        2.257448168     0.532011856    -0.886219956
 H       -5.134773772    -0.053422831     5.050077249
 H       -6.038688709     1.033246103     3.966089119
 H       -6.377730839     1.034342275     5.717643903
 H       -2.628939823     1.109289706     3.808084227
 C       -3.610826193     2.497492061     2.453726934
 C       -1.785728581     3.099075668     4.054458176
 H       -2.605481834     2.818027327     6.952376062
 C       -4.331052774     2.168256286     8.094957384
 C       -2.672339517     0.650612078     6.983065710
 H       -8.302282710    15.037664376     5.229090939
 C       -7.953855336    15.071754866     3.082385641
 C       -9.466191069    16.631970026     4.326897360
 H      -11.848519344    15.142165322     5.643094051
 C      -12.571468909    13.097357206     5.765185893
 C      -10.679417244    14.043667821     7.108380480
 H       -3.186711570    12.634265240     3.392742410
 C       -4.423498453    14.376429701     3.001208161
 C       -5.255083884    12.015294352     3.179454138
 H       -2.549297659    14.752051541     0.449869840
 C       -0.960858068    13.762936011     1.542004479
 C       -1.492345109    13.384213264    -0.871354258
 H       -1.776033119    -0.849764359    -1.484627179
 C       -0.171065642    -0.320198884    -2.850139646
 C       -0.298866072    -2.435914294    -1.519127429
 H       -0.220638498    -1.944161054     1.491897889
 C       -0.131067890    -0.265238291     2.864903090
 C       -2.170872265    -0.993451824     1.612401669
 H       -4.423044944     1.819996793     2.165788996
 H       -2.841739381     2.411922324     1.667714932
 H       -3.991067146     3.527334059     2.383986081
 H       -1.223332616     2.865838933     4.966140465
 H       -2.061432335     4.163244766     4.084880210
 H       -1.078207035     2.997519447     3.216390955
 H       -4.841522841     3.141521118     8.122082667
 H       -3.759639393     2.094907661     9.031047961
 H       -5.103224846     1.389056463     8.142833025
 H       -1.932543582     0.493820011     6.187124331
 H       -3.364726165    -0.201333878     6.969343929
 H       -2.122022408     0.583445964     7.932517955
 H       -7.443322262    14.098466406     3.031407112
 H       -7.164023723    15.833863316     3.140320566
 H       -8.459318967    15.228047336     2.117470568
 H      -10.100805476    16.827805738     5.200233717
 H      -10.044238297    16.887461975     3.427786048
 H       -8.642617638    17.358894708     4.377810185
 H      -13.180500605    13.123821979     4.851343339
 H      -13.255210665    13.315772980     6.597726133
 H      -12.234163783    12.060728382     5.909488823
 H       -9.889154302    14.798019845     7.213248360
 H      -10.231016259    13.059354904     7.305854590
 H      -11.388827803    14.226192707     7.928512724
 H       -3.574256076    15.054538240     2.849126236
 H       -4.745377368    14.514782045     4.043402682
 H       -5.250563278    14.735708101     2.371642825
 H       -5.056865450    10.938560012     3.074346492
 H       -6.184222371    12.231292834     2.632386968
 H       -5.480223976    12.181975645     4.242720292
 H       -1.299821900    14.019653598     2.553409023
 H       -0.227607935    14.532839430     1.260146629
 H       -0.401064793    12.819686445     1.602125485
 H       -2.227877891    13.384539049    -1.687643308
 H       -0.987836523    12.407242864    -0.888488326
 H       -0.730635683    14.128925867    -1.141278012
 H       -0.403405226     0.749466926    -2.947130233
 H       -0.661591359    -0.819651845    -3.697714601
 H        0.909788539    -0.436666622    -3.007511174
 H       -0.694291077    -2.972197706    -0.646767861
 H        0.781838884    -2.623902169    -1.566011227
 H       -0.733801987    -2.925949457    -2.402421228
 H        0.962895691    -0.235943863     2.941417939
 H       -0.483404323    -0.852588231     3.725149940
 H       -0.506645404     0.757979626     3.017722208
 H       -2.607502924    -1.517672938     0.753250958
 H       -2.658976492    -0.009479611     1.686161225
 H       -2.480284170    -1.555754472     2.505241520

