187   

Si        0.000000000     0.000000000     0.000000000
 C        1.865553958     0.000000000     0.000000000
 C       -0.671949906     1.713761839     0.000000000
 C        0.142720988     2.805955887    -0.314917948
 C       -0.374768750     4.101064414    -0.312462814
 C       -1.717241454     4.334057450    -0.002482773
 C       -2.533232265     3.238086822     0.308753428
 C       -2.019157737     1.944292470     0.309597876
 C       -2.300395220     5.671599756     0.012120594
 C       -1.626830753     6.801108518    -0.264433592
 C       -2.205093629     8.140534539    -0.251224874
 C       -3.546594861     8.380221873     0.057864463
 C       -4.056680907     9.678344648     0.058192615
 C       -3.237114737    10.763993551    -0.265925107
 C       -1.891702730    10.526322272    -0.578166360
 C       -1.382685549     9.231000191    -0.565107954
Si       -3.883755368    12.486336439    -0.273335291
 C       -3.073896154    13.522439280    -1.545351125
 C       -2.599296330    13.028226106    -2.696366179
 C       -1.945800531    13.817020102    -3.740192098
 C       -1.499826178    13.158669003    -4.893202518
 C       -0.872946961    13.848363753    -5.919175663
 C       -0.758155436    15.253558585    -5.869023097
 C       -1.229935595    15.919731298    -4.717835335
 C       -1.789928956    15.204729919    -3.668683980
 N       -0.126745218    15.968591960    -6.898623701
 C        0.107359761    15.292213080    -8.185407111
 C       -0.481157055    17.391895878    -7.022886282
 C       -1.147619797    14.760672927    -8.902506181
 C       -1.834639104    15.807566337    -9.799757153
 N       -3.311076590    15.843820246    -9.684019376
 C       -3.726298993    16.383877133    -8.421743199
 C       -3.748147377    17.785562786    -8.333597498
 C       -4.136555682    18.395743047    -7.151174985
 C       -4.502553238    17.629701675    -6.034253134
 C       -4.487482173    16.236254972    -6.134388036
 C       -4.115897670    15.612512828    -7.321608524
 C       -3.947985819    14.561893937   -10.035081352
 C       -4.903606931    18.332960126    -4.813483268
 C       -5.275185674    17.725473899    -3.679874984
Si       -5.776918026    18.596241725    -2.152630361
 C       -4.839717870    17.897173574    -0.735445210
 C       -3.495299639    17.545673157    -0.918503246
 C       -2.758098178    17.013754541     0.135119712
 C       -3.335693511    16.854313444     1.401985959
 C       -4.673021782    17.216330185     1.583305088
 C       -5.421603025    17.727488878     0.523646843
 C       -2.523548182    16.292296794     2.475652040
 C       -2.959615459    16.065916485     3.726361905
 C       -2.144330651    15.503708574     4.797323799
 C       -0.807058129    15.142088230     4.614693048
 C       -0.063162842    14.607600494     5.666290680
 C       -0.648561987    14.405020560     6.919823757
 C       -1.991975987    14.760017087     7.103251550
 C       -2.728568626    15.304360514     6.055095358
Si        0.318383691    13.700596823     8.319040954
 C        1.952987206    13.011111482     7.743111350
 C        0.648707352    15.054292505     9.615178604
 C       -0.727925843    12.327757325     9.121540042
 C       -5.395574726    20.456722028    -2.257315588
 C       -7.650479745    18.375579950    -1.917116201
 C       -5.759925459    12.541668358    -0.557602669
 C       -3.490833277    13.224478610     1.435073991
 C       -0.616990409    -0.919933515    -1.547836901
 C       -0.657426472    -0.903829622     1.541002733
 H        1.200284793     2.687260485    -0.566184243
 H        0.281697278     4.934130239    -0.557237033
 H       -3.581734440     3.397272974     0.553248871
 H       -2.703502405     1.129396758     0.561475675
 H       -3.362122484     5.705856193     0.272133524
 H       -0.564503290     6.765126295    -0.524054321
 H       -4.206357121     7.551049177     0.305208840
 H       -5.111945568     9.804496786     0.314307151
 H       -1.205014800    11.339662129    -0.837211000
 H       -0.334360475     9.065784172    -0.805845570
 H       -3.019076659    14.596100430    -1.308270966
 H       -2.658838396    11.958620406    -2.947042660
 H       -1.619895936    12.077686893    -4.978710747
 H       -0.480027316    13.289257756    -6.761736089
 H       -1.154415541    16.999650111    -4.637351301
 H       -2.130461698    15.742371583    -2.781612890
 H       -0.037812353    17.827713938    -7.931443404
 H       -0.060232291    17.943705477    -6.162277648
 H       -1.572810471    17.562879419    -7.053726371
 H       -3.731265676    14.346346887   -11.095672448
 H       -5.043018893    14.664596014    -9.937014799
 H       -3.622928351    13.700315620    -9.432815521
 H       -3.473828360    18.378996165    -9.204090855
 H       -4.160563509    19.483467124    -7.093955455
 H       -4.762722110    15.620759382    -5.275540332
 H       -4.114242956    14.526808764    -7.377820372
 H       -4.870551255    19.425347192    -4.920090382
 H       -5.303850887    16.625388184    -3.600371759
 H       -2.992208917    17.665330406    -1.884491283
 H       -1.720276713    16.725757568    -0.026154402
 H       -5.144204588    17.097875390     2.556923808
 H       -6.465045018    17.985565252     0.721792927
 H       -1.493199903    16.054338632     2.192758303
 H       -3.988911274    16.302496907     4.010086811
 H       -0.328341411    15.285518563     3.647230512
 H        0.980638098    14.350403403     5.465072712
 H       -2.502377159    14.622176282     8.060729931
 H       -3.769809876    15.575956603     6.217132549
 H        0.668862068    15.985940169    -8.850216915
 H        0.808456483    14.445054116    -7.985315760
 H       -0.877848575    13.873360482    -9.503152099
 H       -1.870523767    14.390389036    -8.144970247
 H       -1.456075138    16.829210885    -9.574569321
 H       -1.594417705    15.618212400   -10.869166034
 H        2.263686211    -1.029043093     0.052528919
 H        2.260884783     0.553661162     0.871062395
 H        2.275163822     0.468671826    -0.911825512
 H        2.508148219    12.551283405     8.580249357
 H        2.597571932    13.794430653     7.307409139
 H        1.804854118    12.229673420     6.975403771
 H        1.295605676    14.569374610    10.402504529
 C        1.422336002    16.251317946     9.032353924
 C       -0.624493267    15.578623186    10.302921045
 H       -1.669578291    12.831224542     9.487732692
 C       -1.138152154    11.237483652     8.115269073
 C       -0.046880349    11.664127469    10.331486646
 H       -5.910813257    20.829613794    -3.189276151
 C       -5.945293657    21.252240476    -1.059982319
 C       -3.889312118    20.746046510    -2.392943579
 H       -7.911170478    18.922738576    -0.965218229
 C       -8.471713731    18.996665057    -3.061282071
 C       -8.064749467    16.903362790    -1.749392441
 H       -6.225013411    11.935163526     0.271517281
 C       -6.324081434    13.971739030    -0.479121261
 C       -6.172778819    11.915002473    -1.901567498
 H       -3.712293955    14.329196216     1.350892189
 C       -4.352334670    12.654675894     2.574242804
 C       -2.006094710    13.054583618     1.804173066
 H       -0.128330354    -1.936342121    -1.514258673
 C       -2.142284769    -1.124964732    -1.574072823
 C       -0.190119535    -0.227830379    -2.855370984
 H       -1.782042797    -0.904406000     1.442806026
 C       -0.192919242    -2.367849489     1.639314509
 C       -0.299774780    -0.175022381     2.849024057
 H        2.388504729    15.974016030     8.591443035
 H        1.644797700    16.978776674     9.826226494
 H        0.851833291    16.796574837     8.266795809
 H       -1.200843222    14.794761412    10.810334851
 H       -1.299531398    16.099955719     9.609888547
 H       -0.356997687    16.311880440    11.077911434
 H       -1.681368257    11.631969143     7.244287425
 H       -1.813091035    10.515162114     8.596163626
 H       -0.285067257    10.658028344     7.737683896
 H        0.216096451    12.373782084    11.126444869
 H        0.863141127    11.112221853    10.060989301
 H       -0.726449785    10.929610259    10.787876894
 H       -7.035736177    21.184861480    -0.955036576
 H       -5.715450687    22.320974344    -1.181023308
 H       -5.497187110    20.951020021    -0.102473010
 H       -3.419278027    20.243107447    -3.249102063
 H       -3.321038201    20.467975969    -1.493389061
 H       -3.724312981    21.822907013    -2.538157313
 H       -8.300138379    20.073234880    -3.188018653
 H       -9.546294173    18.880341701    -2.859664578
 H       -8.288047378    18.513302153    -4.031766130
 H       -7.562630555    16.402666004    -0.909611938
 H       -7.884818596    16.302245983    -2.651938582
 H       -9.143065721    16.836105122    -1.546454566
 H       -6.108575802    14.475875805     0.472847498
 H       -7.418211274    13.950055428    -0.576771431
 H       -5.950367620    14.619399838    -1.286405977
 H       -5.856648743    10.868594426    -2.009001554
 H       -5.782517172    12.468554983    -2.768259707
 H       -7.267114531    11.917462605    -1.999055594
 H       -5.427019439    12.821206466     2.432476772
 H       -4.086633976    13.148870239     3.521788079
 H       -4.193871834    11.579830551     2.735469452
 H       -1.321198964    13.512088251     1.078780917
 H       -1.712487754    12.002084420     1.924925156
 H       -1.805836201    13.536480339     2.773939007
 H       -2.520387722    -1.694170756    -0.715525759
 H       -2.428868874    -1.695356621    -2.469612313
 H       -2.699293076    -0.178620137    -1.623837794
 H        0.896996746    -0.114088423    -2.954495299
 H       -0.641536863     0.767271934    -2.978410250
 H       -0.516624143    -0.822548677    -3.720454026
 H       -0.474050764    -2.972840096     0.767708259
 H       -0.657647021    -2.851038634     2.511094055
 H        0.892086373    -2.464433283     1.777688200
 H       -0.650628772     0.866720391     2.874950609
 H        0.778883927    -0.165522332     3.054198241
 H       -0.772912221    -0.679585741     3.703395938

