187   

Si        0.000000000     0.000000000     0.000000000
 C        1.865188240     0.000000000     0.000000000
 C       -0.673073257     1.712041540     0.000000000
 C        0.126403208     2.805626826    -0.346991044
 C       -0.398700125     4.097959740    -0.342183155
 C       -1.735515184     4.321109130    -0.004320685
 C       -2.537091269     3.223641358     0.336339990
 C       -2.014663476     1.934245041     0.339114809
 C       -2.333636118     5.649359467     0.016422066
 C       -1.691167386     6.791984559    -0.278656602
 C       -2.322298514     8.107188264    -0.247600706
 C       -3.667051115     8.272750931     0.098522738
 C       -4.244948655     9.539214804     0.120355958
 C       -3.477037138    10.671866444    -0.173925363
 C       -2.129135308    10.512905210    -0.514331473
 C       -1.561684084     9.240983499    -0.558783671
Si       -4.272135144    12.326355437    -0.135597975
 C       -3.012437619    13.643882572    -0.027658799
 C       -2.950896600    14.724006596    -0.816883809
 C       -1.928771888    15.765220991    -0.707530791
 C       -1.973273046    16.847787142    -1.594503400
 C       -1.030845507    17.863533169    -1.537257400
 C        0.042973501    17.788826010    -0.626974149
 C        0.099743518    16.688048340     0.253575380
 C       -0.880805334    15.707939490     0.217973758
 N        1.013221558    18.800711706    -0.544824314
 C        1.012157472    19.851158484    -1.574043424
 C        2.356455522    18.379638497    -0.113715022
 C        1.358402315    19.361543380    -2.993308345
 C        2.802854522    19.710965643    -3.400843170
 N        3.482524627    18.650402159    -4.173746414
 C        3.787148393    17.494819777    -3.397839813
 C        4.725766360    17.653256461    -2.360224253
 C        5.070517355    16.572765957    -1.564815023
 C        4.523034861    15.301663988    -1.797921332
 C        3.605216160    15.147883754    -2.839166131
 C        3.235970944    16.228834728    -3.634041196
 C        2.837279976    18.392395118    -5.472473402
 C        4.926274340    14.198250056    -0.922876013
 C        4.481037839    12.940201498    -1.035087884
Si        4.979057078    11.557526587     0.052498417
 C        3.555803929    10.612218022     0.724693545
 C        2.275769256    11.158229504     0.852816232
 C        1.229870761    10.391804459     1.371272714
 C        1.449441254     9.077923599     1.792068991
 C        2.736836609     8.536493498     1.670470509
 C        3.777025273     9.291633908     1.141144191
 C        0.405355777     8.223090219     2.341853997
 C       -0.876762426     8.577492781     2.527392680
 C       -1.890626221     7.686237856     3.082590825
 C       -1.601423213     6.374249644     3.470327803
 C       -2.594687708     5.551780759     3.996575361
 C       -3.908743078     6.018202409     4.125801123
 C       -4.202786222     7.327505556     3.729635929
 C       -3.203916081     8.151231929     3.215729160
Si       -5.186857992     4.894684531     4.826740093
 C       -4.587580523     4.137352999     6.421308048
 C       -6.811549878     5.844486900     5.112528346
 C       -5.531429956     3.520996984     3.550620645
 C        6.068330056    10.392199195    -0.990364589
 C        6.005578770    12.198049949     1.522685907
 C       -5.357603946    12.531604794    -1.682346935
 C       -5.372999537    12.434619180     1.415387640
 C       -0.624865999    -0.925117232    -1.540793828
 C       -0.661232972    -0.891143004     1.548092327
 H        1.177349728     2.689880744    -0.623889714
 H        0.244606693     4.935439809    -0.606829940
 H       -3.582747488     3.379390563     0.601383507
 H       -2.687031519     1.117536131     0.615263183
 H       -3.388910547     5.666586556     0.308297765
 H       -0.635135283     6.790350167    -0.560509786
 H       -4.276571467     7.407246695     0.355016901
 H       -5.304074123     9.603308010     0.384582959
 H       -1.488766699    11.366114949    -0.758547417
 H       -0.511324623     9.130882314    -0.826507695
 H       -2.277376150    13.486747718     0.779278733
 H       -3.672050051    14.912649398    -1.623186622
 H       -2.772253002    16.908244986    -2.334034717
 H       -1.126217420    18.703235357    -2.217337671
 H        0.907956356    16.603708949     0.974228514
 H       -0.820890129    14.873426330     0.919008353
 H        3.092460789    19.181623055    -0.278193599
 H        2.715385637    17.478139817    -0.643557477
 H        2.336913234    18.171112220     0.971448057
 H        2.835703563    19.329326410    -6.056325894
 H        1.801744415    18.024713337    -5.403924053
 H        3.438349012    17.658770591    -6.038355480
 H        5.186300166    18.625168224    -2.197022750
 H        5.792263667    16.710974280    -0.759671272
 H        3.159898410    14.170843958    -3.034132046
 H        2.506255913    16.080970939    -4.425208262
 H        5.640452834    14.508217532    -0.147935915
 H        3.767880407    12.653799081    -1.825429220
 H        2.052296605    12.184549878     0.544962961
 H        0.234471026    10.828564671     1.447663125
 H        2.926433351     7.513711895     1.990874054
 H        4.757233654     8.811830640     1.067064405
 H        0.741572358     7.215932394     2.611068671
 H       -1.232460537     9.576200410     2.256478374
 H       -0.591430964     5.981644110     3.363346973
 H       -2.303529342     4.539392866     4.291963475
 H       -5.210246131     7.744812960     3.802238915
 H       -3.451699068     9.165756481     2.904723950
 H        0.003817613    20.329599993    -1.567244280
 H        1.711633002    20.653523787    -1.247090994
 H        1.207527776    18.262471258    -3.048441030
 H        0.648109074    19.785168486    -3.724488847
 H        2.818418306    20.637299437    -4.017036637
 H        3.423236094    19.931265236    -2.503545773
 H        2.263653605    -1.028698143     0.056098679
 H        2.260231693     0.557139528     0.868765774
 H        2.274549675     0.465782947    -0.913476210
 H       -5.339681036     3.449258519     6.845092627
 H       -4.386568757     4.919049226     7.176798871
 H       -3.652579066     3.567747342     6.277985353
 H       -7.047276231     6.357187533     4.134763236
 C       -8.003892663     4.934696888     5.461438093
 C       -6.684993376     6.927114651     6.200581973
 H       -6.389175287     2.922400789     3.972257253
 C       -5.961323730     4.077931189     2.180792620
 C       -4.343895729     2.563205719     3.348361725
 H        6.440579617     9.595295447    -0.284060727
 C        5.277387012     9.700023690    -2.114482185
 C        7.293617759    11.097380955    -1.597498100
 H        6.832205558    12.823450088     1.077398863
 C        5.178224380    13.091216769     2.465466482
 C        6.654189396    11.074172313     2.349906228
 H       -5.738583660    13.593464569    -1.654556463
 C       -4.561184141    12.340354041    -2.986246083
 C       -6.576247064    11.591730656    -1.706827918
 H       -6.145747879    11.620079494     1.306482345
 C       -4.589398367    12.175651796     2.714810140
 C       -6.111930130    13.778666970     1.533342324
 H       -0.148690336    -1.947059458    -1.498768921
 C       -2.152695373    -1.111394326    -1.567327373
 C       -0.188272307    -0.248126613    -2.853004879
 H       -1.782647563    -0.932801456     1.424798855
 C       -0.150123527    -2.335612692     1.690100557
 C       -0.359886201    -0.120952157     2.846841045
 H       -8.231363803     4.198462983     4.679923724
 H       -8.913978670     5.539595063     5.585266000
 H       -7.867275391     4.390025841     6.404920622
 H       -5.863358055     7.635289875     6.024716104
 H       -6.544232518     6.505071109     7.204926933
 H       -7.605047935     7.527057244     6.244239247
 H       -6.874426380     4.685274135     2.226952419
 H       -6.177929319     3.251725245     1.488715761
 H       -5.180929840     4.689456710     1.704767016
 H       -4.026056619     2.063772806     4.272335523
 H       -3.461123901     3.058343336     2.915836510
 H       -4.621006122     1.762398607     2.647849325
 H        4.403320866     9.140558680    -1.752046823
 H        5.916711483     8.969253416    -2.630009048
 H        4.927170282    10.400002075    -2.885489643
 H        7.954985178    11.545796438    -0.844964921
 H        7.022510805    11.886029389    -2.314106482
 H        7.906675459    10.374072055    -2.153922542
 H        4.703927676    13.944541860     1.961781278
 H        5.823872251    13.512841915     3.248528309
 H        4.384874304    12.536384529     2.987523333
 H        7.339548348    10.444616751     1.768451758
 H        5.916272672    10.415161553     2.829415786
 H        7.252625699    11.505734815     3.165516716
 H       -3.690083223    13.004366635    -3.071345751
 H       -5.199928510    12.554845358    -3.854310340
 H       -4.200537606    11.309526076    -3.116236460
 H       -7.252028050    11.731937289    -0.853819861
 H       -6.296456894    10.529401126    -1.745267750
 H       -7.177678683    11.780682774    -2.607951802
 H       -4.054623319    11.215458837     2.717205162
 H       -5.279033713    12.146218596     3.570322886
 H       -3.857951207    12.965002651     2.936591621
 H       -6.762883640    13.994897958     0.676545475
 H       -5.430147478    14.632780229     1.655539108
 H       -6.762006643    13.775529687     2.419740579
 H       -2.538046973    -1.674625031    -0.708161222
 H       -2.445798357    -1.679776667    -2.462018524
 H       -2.697973917    -0.158168952    -1.618973596
 H        0.900249824    -0.148277823    -2.951712303
 H       -0.627669569     0.751385647    -2.984028138
 H       -0.521033273    -0.845361358    -3.713998339
 H       -0.387038914    -2.967930392     0.824734581
 H       -0.620908465    -2.816611337     2.559777548
 H        0.933564870    -2.391667923     1.858227801
 H       -0.741999197     0.910257754     2.838227269
 H        0.712515922    -0.073582487     3.077535286
 H       -0.838116520    -0.620882255     3.700944333

