187   

Si        0.000000000     0.000000000     0.000000000
 C        1.865419261     0.000000000     0.000000000
 C       -0.671324965     1.714403770     0.000000000
 C        0.146198266     2.807517122     0.304160450
 C       -0.371038188     4.102678783     0.301699451
 C       -1.716084998     4.334637603     0.002477108
 C       -2.534940854     3.238007712    -0.298380865
 C       -2.020931482     1.944154478    -0.299597190
 C       -2.298894404     5.672462463    -0.011643699
 C       -1.622050609     6.802315168     0.255325625
 C       -2.199459941     8.142148715     0.242680645
 C       -3.543277008     8.382392868    -0.055474697
 C       -4.052143748     9.681053344    -0.055612279
 C       -3.229032160    10.767430478     0.255297784
 C       -1.880961843    10.529103357     0.555792501
 C       -1.373228701     9.233271161     0.544209072
Si       -3.866164089    12.492935979     0.264825732
 C       -3.052112884    13.499590806     1.560406843
 C       -2.598470381    12.969925118     2.704249909
 C       -1.940942415    13.723996233     3.773552515
 C       -1.521160405    13.021852242     4.914024562
 C       -0.893081802    13.676615893     5.960783919
 C       -0.682495476    15.065927017     5.894365269
 C       -1.087545152    15.771089094     4.755394441
 C       -1.694024191    15.096785884     3.698919229
 N       -0.027507890    15.659568024     7.017789378
 C       -0.900742097    15.732980280     8.211618066
 C        0.665240476    16.928724195     6.735707212
 C       -2.007425510    16.802109627     8.130544877
 C       -3.369590245    16.316965360     8.661329327
 N       -4.198977774    15.560964203     7.699995724
 C       -4.356997644    16.130734900     6.421769460
 C       -4.447596625    17.533862869     6.292758612
 C       -4.603180432    18.113917600     5.044933904
 C       -4.717920207    17.328957478     3.889230202
 C       -4.669951572    15.939070089     4.023333989
 C       -4.512726316    15.341748972     5.267079517
 C       -3.974536447    14.106620070     7.748050164
 C       -4.880236179    18.000394159     2.600280829
 C       -5.000391064    17.365990239     1.426457943
Si       -5.202485687    18.225816926    -0.173744312
 C       -4.374717221    19.867980100    -0.158852382
 C       -3.189941901    20.034306342     0.568981431
 C       -2.543137642    21.268149980     0.596570375
 C       -3.055445233    22.358934244    -0.112140998
 C       -4.236079780    22.187931797    -0.846084738
 C       -4.888444423    20.957195869    -0.871020714
 C       -2.411636838    23.668521876    -0.111734542
 C       -1.279248621    23.962943598     0.549351086
 C       -0.633519656    25.271396674     0.551415840
 C       -1.144805153    26.365855223    -0.150523362
 C       -0.494264954    27.599408627    -0.120618635
 C        0.680320823    27.766544301     0.619486942
 C        1.194813303    26.670238056     1.325152199
 C        0.546785982    25.438902247     1.288401990
Si        1.551018735    29.387790418     0.669426885
 C        0.485781322    30.760201295    -0.009756878
 C        2.025118001    29.755508792     2.476015488
 C        3.145211971    29.281733520    -0.365266826
 C       -4.385441471    17.147181248    -1.511217528
 C       -7.052660273    18.404302716    -0.568131128
 C       -3.537487876    13.295259950    -1.424858461
 C       -5.741259981    12.479582168     0.593473742
 C       -0.657031592    -0.901651400    -1.542291520
 C       -0.616966371    -0.921556479     1.546668611
 H        1.205920265     2.689528085     0.546950057
 H        0.287767591     4.936498084     0.537770992
 H       -3.585439177     3.396373333    -0.534711427
 H       -2.707313039     1.128453316    -0.543508494
 H       -3.362908398     5.706277937    -0.262617706
 H       -0.557460648     6.766587086     0.505736763
 H       -4.206526824     7.553033058    -0.293670320
 H       -5.109791687     9.805414506    -0.302843937
 H       -1.189576807    11.341909210     0.804312631
 H       -0.322524482     9.068225719     0.776211106
 H       -2.967148044    14.575630995     1.347301109
 H       -2.682921563    11.896469168     2.932638629
 H       -1.683131291    11.945345930     4.976645976
 H       -0.542036815    13.123760090     6.829912135
 H       -0.940184078    16.845448494     4.687353293
 H       -1.998787195    15.661868152     2.815961614
 H        1.290033416    17.187027767     7.608311866
 H        0.001587267    17.779972243     6.520404306
 H        1.344158786    16.785661576     5.876455851
 H       -3.859388566    13.775121140     8.792306117
 H       -3.090551624    13.777114836     7.174274432
 H       -4.867942729    13.593301837     7.346285423
 H       -4.397014035    18.167225828     7.173298044
 H       -4.649609496    19.200916780     4.966257354
 H       -4.759194861    15.299128293     3.142225781
 H       -4.474907208    14.257516542     5.323056472
 H       -4.890878414    19.096764187     2.685532091
 H       -4.994433565    16.266957695     1.366178010
 H       -2.739274863    19.214166493     1.139487036
 H       -1.627911039    21.374787538     1.175930632
 H       -4.651553560    23.024227008    -1.404981665
 H       -5.806467298    20.884542679    -1.460201699
 H       -2.924153819    24.430821576    -0.705665501
 H       -0.767059027    23.199584302     1.142461291
 H       -2.060017644    26.263392444    -0.730681205
 H       -0.941526704    28.418091283    -0.691111760
 H        2.109161708    26.741890162     1.921018579
 H        0.962733163    24.598630817     1.840985215
 H       -1.341341667    14.724939534     8.375941129
 H       -0.241272658    15.926217022     9.086933970
 H       -1.698562673    17.703882900     8.689621564
 H       -2.120497492    17.140827702     7.078694930
 H       -3.230177224    15.702607824     9.577337883
 H       -3.975810574    17.198303614     8.983952788
 H        2.263652164    -1.029407644    -0.045983514
 H        2.275409391     0.474413180     0.908728787
 H        2.260760685     0.547784903    -0.874782834
 H        0.997935237    31.736079605     0.066356768
 H       -0.463462635    30.839363304     0.550692440
 H        0.237071489    30.597544173    -1.073076301
 H        2.702543207    28.911008661     2.795918594
 C        2.800292740    31.073409867     2.651636720
 C        0.805372371    29.761672178     3.415202069
 H        3.594937388    30.316287772    -0.338907448
 C        4.183800373    28.296488362     0.200144315
 C        2.870387278    28.917843546    -1.835886961
 H       -4.905448271    16.146042867    -1.461292438
 C       -4.561550340    17.701939074    -2.934589222
 C       -2.886138586    16.927623072    -1.240686981
 H       -7.110677066    18.928402774    -1.565617189
 C       -7.783370296    17.056020276    -0.700245858
 C       -7.786949878    19.270429342     0.471000761
 H       -3.906927455    14.360254665    -1.342967600
 C       -2.037682982    13.336789318    -1.767852032
 C       -4.296831662    12.616709191    -2.577341119
 H       -6.187176930    11.832016529    -0.215870321
 C       -6.085357257    11.850988081     1.956023774
 C       -6.403918930    13.864395084     0.506637055
 H       -1.781762490    -0.901224276    -1.445168710
 C       -0.297370162    -0.172132425    -2.849296947
 C       -0.193807016    -2.365970321    -1.641461570
 H       -0.128579670    -1.938153928     1.511235939
 C       -0.189148306    -0.231606421     2.855022014
 C       -2.142207411    -1.126684860     1.573543461
 H        3.725395987    31.115725191     2.062317565
 H        3.100058365    31.195215194     3.702749193
 H        2.202025172    31.958904114     2.399166558
 H        0.231307586    28.824427817     3.386663116
 H        0.107185090    30.583257124     3.207153979
 H        1.132097707    29.889770107     4.457018152
 H        4.499384669    28.535066389     1.223654018
 H        5.095644725    28.319225386    -0.414450866
 H        3.834056781    27.254548188     0.188196020
 H        2.197426158    29.622057044    -2.341734530
 H        2.447163009    27.909908580    -1.954336252
 H        3.809255657    28.926016947    -2.408000321
 H       -5.611636520    17.804932120    -3.236147079
 H       -4.098127617    17.021856456    -3.664014855
 H       -4.076743242    18.678196068    -3.077262898
 H       -2.679661817    16.479913475    -0.258293240
 H       -2.299320734    17.854338401    -1.313501619
 H       -2.464001379    16.240045137    -1.988394604
 H       -7.375512473    16.416918636    -1.493817124
 H       -8.839224815    17.225080134    -0.956252006
 H       -7.784554783    16.477501017     0.234619457
 H       -7.358921303    20.276157127     0.583605385
 H       -7.811673278    18.809390519     1.469459037
 H       -8.834574039    19.414368711     0.171981210
 H       -1.434369837    13.872884225    -1.022164977
 H       -1.882910899    13.857352488    -2.723734754
 H       -1.599087447    12.336274796    -1.892679921
 H       -5.386951206    12.633806913    -2.451290951
 H       -3.994794355    11.571420958    -2.733898804
 H       -4.089387316    13.137774046    -3.523391699
 H       -5.709599528    10.825433058     2.072546439
 H       -7.175749552    11.792578829     2.080762675
 H       -5.708797870    12.439053062     2.806092671
 H       -6.232382853    14.372356469    -0.451079736
 H       -6.083620550    14.540221377     1.312928769
 H       -7.494457921    13.766163140     0.609301866
 H       -0.647322497     0.869853830    -2.875014773
 H       -0.769871032    -0.675572378    -3.704715491
 H        0.781533158    -0.163505763    -3.053399151
 H       -0.480217645    -2.972573470    -0.772650843
 H        0.891744183    -2.463862824    -1.774702257
 H       -0.654641253    -2.846666588    -2.516713813
 H        0.898162468    -0.119232320     2.954096047
 H       -0.516093519    -0.827406724     3.719297306
 H       -0.639461361     0.763697132     2.979835940
 H       -2.521591067    -1.690205749     0.711786458
 H       -2.699075121    -0.180728216     1.630404717
 H       -2.427724839    -1.703163603     2.465592178

