187   

Si        0.000000000     0.000000000     0.000000000
 C        1.865303017     0.000000000     0.000000000
 C       -0.681120467     1.709856920     0.000000000
 C        0.137423469     2.813694944     0.259116939
 C       -0.391171823     4.104102099     0.256118060
 C       -1.747110139     4.320454968    -0.003422673
 C       -2.566355517     3.213391408    -0.260417225
 C       -2.042042095     1.923837632    -0.257659741
 C       -2.341471453     5.652789371    -0.016450996
 C       -1.661855136     6.788582456     0.214921463
 C       -2.244536622     8.124779455     0.204594924
 C       -1.410790077     9.221192595     0.464265779
 C       -1.919634865    10.516416019     0.465695960
 C       -3.275943807    10.747230718     0.200006110
 C       -4.108029370     9.655072388    -0.064407670
 C       -3.595641763     8.357657719    -0.063514805
Si       -3.932206271    12.466566068     0.205939061
 C       -5.707486497    12.466123694    -0.234587127
 C       -6.269415129    13.247021681    -1.166476403
 C       -7.692985799    13.235075283    -1.507966737
 C       -8.150358239    14.107993815    -2.507249577
 C       -9.485501022    14.140856034    -2.872237966
 C      -10.423976438    13.322034395    -2.209503248
 C       -9.969459350    12.449884112    -1.206061185
 C       -8.618979716    12.400571182    -0.878244935
 N      -11.777571893    13.386814451    -2.613890951
 C      -12.327660907    14.753077342    -2.758814362
 C      -12.699478851    12.462250913    -1.933502534
 C      -11.987436688    15.684999672    -1.580107358
 C      -13.119699969    16.649352462    -1.189597384
 N      -14.381591401    16.035604795    -0.718503158
 C      -14.267159011    14.864143802     0.052659639
 C      -13.285983828    14.813149332     1.067955821
 C      -13.144747169    13.677899882     1.845794381
 C      -14.008515951    12.582467922     1.690796008
 C      -15.004161718    12.650776478     0.715158909
 C      -15.145214455    13.775263761    -0.090589999
 C      -15.459868189    16.071089099    -1.719083076
 C      -13.809121365    11.410334610     2.542413629
 C      -14.560901780    10.302117245     2.496141495
Si      -14.262046809     8.866384112     3.588736235
 C      -12.469565012     8.770275051     3.994779072
 C      -11.539010294     8.939143926     2.960833417
 C      -10.171759851     8.874699141     3.220113705
 C       -9.702830821     8.634972552     4.515436412
 C      -10.635001599     8.464101900     5.546527662
 C      -12.003166145     8.530879757     5.291066791
 C       -8.281584766     8.559089970     4.834253075
 C       -7.287402386     8.704426043     3.941989286
 C       -5.867512833     8.627271051     4.268060832
 C       -5.403688783     8.390289149     5.564958851
 C       -4.036889453     8.324322962     5.832162854
 C       -3.102465091     8.489164283     4.803900212
 C       -3.565757094     8.716483464     3.502753429
 C       -4.931277739     8.777220414     3.237923320
Si       -1.297883582     8.402265534     5.155557073
 C       -0.928581777     8.862528565     6.925391623
 C       -0.689923734     6.626593901     4.838269514
 C       -0.397405568     9.579675721     3.961777805
 C      -15.308514946     9.050640405     5.165912313
 C      -14.793724182     7.279163425     2.687321353
 C       -3.736973256    13.147242783     1.973853705
 C       -2.951381721    13.562268452    -0.999274332
 C       -0.658817908    -0.905569102    -1.538848537
 C       -0.609218573    -0.916591732     1.553339421
 H        1.205540293     2.706910005     0.467071681
 H        0.267767379     4.946383101     0.459692866
 H       -3.625744635     3.359836938    -0.463379008
 H       -2.729479391     1.098964908    -0.465367629
 H       -3.414533557     5.675604736    -0.226835256
 H       -0.587549900     6.760146418     0.421409016
 H       -0.352248066     9.061010404     0.661392289
 H       -1.224254232    11.331347620     0.686818027
 H       -5.171238229     9.777171933    -0.293509460
 H       -4.261710159     7.523116190    -0.275150519
 H       -6.315728671    11.763759362     0.358968809
 H       -5.693191911    13.965403889    -1.765178890
 H       -7.442860788    14.762975881    -3.015930080
 H       -9.811821685    14.797644763    -3.673784775
 H      -10.663861226    11.810252073    -0.667707724
 H       -8.288974970    11.709096551    -0.101050151
 H      -13.700332916    12.536281191    -2.390204576
 H      -12.805439648    12.652705232    -0.850344015
 H      -12.352567600    11.424642481    -2.084728101
 H      -15.513870025    17.078199745    -2.167294559
 H      -16.428752625    15.900709276    -1.213626026
 H      -15.348723231    15.332962363    -2.529013706
 H      -12.643379094    15.672745940     1.243144265
 H      -12.361421604    13.644710883     2.605686919
 H      -15.691615663    11.814630967     0.580195487
 H      -15.931452301    13.788305310    -0.837487659
 H      -12.957458863    11.520852742     3.231182809
 H      -15.412955996    10.208838340     1.809215194
 H      -11.847906797     9.134627111     1.927852005
 H       -9.467962811     9.014064240     2.401170476
 H      -10.290087517     8.277143182     6.561655944
 H      -12.682692203     8.388282939     6.135383486
 H       -8.059781207     8.367663784     5.888023877
 H       -7.506470054     8.895336465     2.887038049
 H       -6.109859410     8.259198545     6.382109224
 H       -3.734310372     8.141523328     6.866590662
 H       -2.883837112     8.846550692     2.653399109
 H       -5.267627354     8.946517376     2.214969228
 H      -11.929974870    15.172436880    -3.710862535
 H      -13.427147631    14.678003214    -2.898304065
 H      -11.688822463    15.072857344    -0.703019049
 H      -11.080960881    16.274699475    -1.820407493
 H      -12.762767681    17.306152347    -0.357562742
 H      -13.340152295    17.328941410    -2.041563562
 H        2.262602006    -1.030153372    -0.037572707
 H        2.274958651     0.481288010     0.905278653
 H        2.262086732     0.540263228    -0.878645434
 H        0.159642309     8.893258015     7.110226935
 H       -1.366029558     8.140906574     7.636730115
 H       -1.334964445     9.861278550     7.167134611
 H        0.378966443     6.598371751     5.196666689
 C       -1.490329810     5.579058602     5.633689644
 C       -0.705525624     6.231884502     3.352018814
 H       -0.654429727     9.212892823     2.923734195
 C       -0.887390069    11.034254193     4.078287415
 C        1.134423094     9.551915716     4.103362400
 H      -15.036767156     8.174587811     5.823266653
 C      -14.989938628    10.346507655     5.933446197
 C      -16.823906322     8.991551572     4.901696213
 H      -15.896214418     7.397067368     2.477616424
 C      -14.071544527     7.091104980     1.340936728
 C      -14.601048376     6.011707366     3.538200865
 H       -2.636234336    13.068644240     2.211487874
 C       -4.152006796    14.623549712     2.098321661
 C       -4.507974518    12.322557319     3.017940381
 H       -3.523965305    14.534299720    -1.054875117
 C       -1.518570591    13.893423385    -0.545182866
 C       -2.892277099    12.959313940    -2.414918445
 H       -1.783487608    -0.905574123    -1.439630645
 C       -0.302244445    -0.178590662    -2.848085928
 C       -0.194750414    -2.369748449    -1.635222437
 H       -0.104494370    -1.925441355     1.529060196
 C       -0.196487227    -0.205684301     2.855405147
 C       -2.130810090    -1.146330088     1.579200307
 H       -1.472430746     5.744205030     6.717896776
 H       -1.068026397     4.577420798     5.467392901
 H       -2.543636937     5.522809735     5.321425891
 H       -0.048625012     6.855296860     2.733051497
 H       -1.713219100     6.261856823     2.909315346
 H       -0.356397756     5.195798730     3.230279000
 H       -1.971042569    11.139933220     3.915847025
 H       -0.401895484    11.658578298     3.315061585
 H       -0.652735533    11.490656439     5.048286331
 H        1.565632589     8.552528255     3.961311635
 H        1.481204351     9.928634100     5.074309261
 H        1.594271215    10.198058417     3.341910270
 H      -13.930012689    10.449026076     6.203510785
 H      -15.552544764    10.374743095     6.877115684
 H      -15.275084553    11.251425417     5.376807289
 H      -17.149064223     8.051093151     4.439016012
 H      -17.181153608     9.817589078     4.271350270
 H      -17.373747404     9.071140331     5.850776706
 H      -14.193361509     7.941518243     0.656568881
 H      -14.475430200     6.213084279     0.817134352
 H      -12.993765070     6.907694777     1.458064681
 H      -15.161870875     6.030258440     4.481540452
 H      -13.546770027     5.815198879     3.781021980
 H      -14.957121978     5.129682358     2.986593649
 H       -3.589285782    15.294544136     1.437447438
 H       -3.971911188    14.979028772     3.123227532
 H       -5.221740623    14.784216562     1.902447708
 H       -4.234149816    11.256150420     3.025801792
 H       -5.598058262    12.382175513     2.896997147
 H       -4.292179967    12.695129757     4.029631105
 H       -1.468985630    14.350587463     0.451291335
 H       -1.066150384    14.618848791    -1.237163386
 H       -0.855668983    13.017871703    -0.549621333
 H       -3.881526134    12.748147446    -2.844553452
 H       -2.313431349    12.025523773    -2.456817692
 H       -2.399120507    13.658514039    -3.104528206
 H       -0.654312709     0.862602645    -2.875967078
 H       -0.775182390    -0.684976488    -3.701595230
 H        0.776276977    -0.168537239    -3.053893846
 H       -0.478351297    -2.974091324    -0.763869388
 H        0.890471551    -2.467299506    -1.771103295
 H       -0.657704022    -2.853182059    -2.507863294
 H        0.888497642    -0.074578754     2.956409860
 H       -0.516071673    -0.797938672     3.724894596
 H       -0.663950558     0.783337390     2.968355138
 H       -2.501084887    -1.715591755     0.717320141
 H       -2.702675308    -0.209311208     1.636595272
 H       -2.407288520    -1.727434082     2.471150795

