187   

Si        0.000000000     0.000000000     0.000000000
 C        1.865026121     0.000000000     0.000000000
 C       -0.672464272     1.713880882     0.000000000
 C        0.112954124     2.788973869    -0.428606277
 C       -0.399389242     4.085617045    -0.427332459
 C       -1.702723913     4.338511411     0.009209633
 C       -2.489230173     3.260528392     0.435400565
 C       -1.984121041     1.963139380     0.424846314
 C       -2.278400397     5.678721022     0.027246502
 C       -1.632159530     6.789736042    -0.365112815
 C       -2.202165198     8.132476221    -0.349491919
 C       -3.504151070     8.391784280     0.085648683
 C       -4.009276789     9.691801731     0.083825692
 C       -3.236176728    10.751452070    -0.398705769
 C       -1.935920641    10.491437788    -0.854323268
 C       -1.425234813     9.197364349    -0.825524323
Si       -3.862591450    12.479921302    -0.419475755
 C       -3.266829188    13.387600189    -1.887277936
 C       -2.989575739    12.828817950    -3.072734154
 C       -2.512492524    13.583093517    -4.234107576
 C       -2.253662101    12.892090208    -5.427500883
 C       -1.801151990    13.562353989    -6.552178334
 C       -1.548873168    14.945234456    -6.494281044
 C       -1.795476970    15.639280232    -5.303848363
 C       -2.285636024    14.959894804    -4.192699029
 N       -1.084313203    15.569647760    -7.692138013
 C        0.284122789    15.142879038    -8.055149083
 C       -1.255207623    17.032006131    -7.748174218
 C        1.367746314    15.564196995    -7.041096459
 C        2.621513751    14.673064882    -7.129095838
 N        2.751536110    13.681530178    -6.041958130
 C        1.786413390    12.652363614    -5.999292205
 C        1.374516440    12.045348418    -7.204204759
 C        0.429058320    11.033345666    -7.190150896
 C       -0.060698935    10.516574568    -5.982175762
 C        0.383307134    11.086903981    -4.786601527
 C        1.288541077    12.141311419    -4.786898448
 C        3.096047810    14.308863513    -4.753685164
 C       -1.058607174     9.448029253    -6.031881282
 C       -1.606002333     8.868742954    -4.955169931
Si       -2.852414251     7.533839004    -5.059856104
 C       -2.639418162     6.504810614    -6.568612867
 C       -1.354661779     6.262455807    -7.069174584
 C       -1.174265089     5.484875744    -8.211546488
 C       -2.269825269     4.919223205    -8.870321322
 C       -3.553905001     5.155629700    -8.362876849
 C       -3.737919321     5.938027616    -7.225229975
 C       -2.129237612     4.098785361   -10.068671813
 C       -0.959269764     3.796164494   -10.656472583
 C       -0.819600809     2.975615825   -11.854862687
 C       -1.915214473     2.415868055   -12.517084763
 C       -1.736273833     1.637182348   -13.660384643
 C       -0.454995535     1.406625262   -14.170736416
 C        0.645756948     1.967601963   -13.508848493
 C        0.464295169     2.739603924   -12.364793870
Si       -0.202365339     0.381441578   -15.678339787
 C       -1.806215346     0.086177046   -16.584237659
 C        1.036723376     1.278850411   -16.811150395
 C        0.538715490    -1.300881036   -15.184050116
 C       -2.616043919     6.392520994    -3.559563079
 C       -4.579290273     8.320139529    -4.975743210
 C       -5.763930629    12.507263978    -0.404982696
 C       -3.223206468    13.372356448     1.133847458
 C       -0.623721389    -0.895956023    -1.559389202
 C       -0.656333090    -0.921027413     1.530567892
 H        1.142041956     2.654412326    -0.773764161
 H        0.234832345     4.905402492    -0.761350564
 H       -3.507720398     3.435335799     0.776581796
 H       -2.646169459     1.161057876     0.762840366
 H       -3.307484647     5.731225600     0.393416144
 H       -0.602018098     6.734579121    -0.731245874
 H       -4.132663030     7.579223205     0.444455390
 H       -5.025847393     9.837437260     0.458313531
 H       -1.290064770    11.284790017    -1.246867771
 H       -0.412803386     9.011503127    -1.180132030
 H       -3.166375303    14.473396622    -1.732789120
 H       -3.085967393    11.750256823    -3.264346193
 H       -2.417125415    11.811645604    -5.477646161
 H       -1.629174636    13.021330247    -7.481874305
 H       -1.607445663    16.705876197    -5.234980381
 H       -2.481652558    15.519409321    -3.278050844
 H       -1.050131027    17.368238039    -8.779487819
 H       -0.606157502    17.597060182    -7.062954964
 H       -2.307856162    17.282841320    -7.527995866
 H        3.877592880    15.071400685    -4.908053338
 H        3.525209322    13.542199067    -4.083143000
 H        2.240489070    14.786380130    -4.248638868
 H        1.794893819    12.372042139    -8.151290495
 H        0.088190825    10.610113163    -8.136262366
 H        0.010134801    10.711342926    -3.832306071
 H        1.584644543    12.573763469    -3.836673738
 H       -1.316906047     9.151331072    -7.059002133
 H       -1.342968199     9.180269904    -3.932932607
 H       -0.459210311     6.674584897    -6.591273028
 H       -0.166195516     5.317906424    -8.586291963
 H       -4.420038745     4.724289614    -8.860607916
 H       -4.763051477     6.089543547    -6.876848361
 H       -3.071668821     3.726415571   -10.480893865
 H       -0.016747150     4.167899155   -10.243939557
 H       -2.923491810     2.583431085   -12.142765660
 H       -2.631785228     1.225635220   -14.134004636
 H        1.670384616     1.822002662   -13.862305010
 H        1.331468641     3.165676950   -11.863712808
 H        0.266562039    14.032944869    -8.162409063
 H        0.515361754    15.551083649    -9.062499764
 H        1.641406658    16.621167031    -7.201899845
 H        0.948656672    15.522309532    -6.015336981
 H        2.659395796    14.135349821    -8.102815827
 H        3.538777216    15.305866016    -7.112921963
 H        2.262630770    -1.029488916     0.050456835
 H        2.260458004     0.551768542     0.872197365
 H        2.276103597     0.470138746    -0.910456776
 H       -1.639615266    -0.493187579   -17.509844798
 H       -2.280188542     1.042116714   -16.872197523
 H       -2.528252323    -0.475428972   -15.966046006
 H        1.988689487     1.376455057   -16.212307392
 C        1.367107804     0.501779596   -18.097821247
 C        0.570263139     2.696908565   -17.187242513
 H        0.613847907    -1.893536262   -16.141234664
 C        1.948586769    -1.199304905   -14.574916183
 C       -0.364226064    -2.079843317   -14.210060868
 H       -2.613009348     7.071939311    -2.656272406
 C       -3.744319865     5.364689815    -3.374172425
 C       -1.269707807     5.648629834    -3.610020091
 H       -5.314414459     7.467029785    -5.038500973
 C       -4.832610877     9.068258362    -3.655004164
 C       -4.849962070     9.276778344    -6.150757710
 H       -6.077412777    11.976098717     0.539625096
 C       -6.346488427    13.931413907    -0.363617929
 C       -6.372397049    11.756055378    -1.602470948
 H       -3.639120027    14.419920740     1.085268564
 C       -3.706582794    12.726427003     2.443660606
 C       -1.687087310    13.469494910     1.160578280
 H       -0.138154965    -1.913956737    -1.544358148
 C       -2.150047426    -1.094345835    -1.579157976
 C       -0.202344626    -0.183120385    -2.857306877
 H       -1.780801357    -0.926965518     1.431282680
 C       -0.185164247    -2.383946120     1.614039825
 C       -0.303315753    -0.204778325     2.846784981
 H        1.774801608    -0.499635218   -17.908593701
 H        2.132159683     1.040665775   -18.675588331
 H        0.501949393     0.390155701   -18.764701905
 H        0.368038385     3.332905102   -16.313382304
 H       -0.331185639     2.700400647   -17.814138055
 H        1.351488070     3.209984085   -17.765967002
 H        2.680398918    -0.731549718   -15.245551435
 H        2.334974851    -2.204970822   -14.353670975
 H        1.963351775    -0.650519514   -13.622615057
 H       -1.371086404    -2.268479532   -14.604072040
 H       -0.476041758    -1.578210717   -13.237912953
 H        0.072366918    -3.066463518   -13.998556421
 H       -4.733177732     5.821176060    -3.244891382
 H       -3.558234585     4.771421562    -2.464712932
 H       -3.808696365     4.644767590    -4.201150646
 H       -0.401563479     6.319132028    -3.644304104
 H       -1.193467460     4.956894219    -4.461019305
 H       -1.153302959     5.028380929    -2.707626031
 H       -4.709068994     8.439612034    -2.762488540
 H       -5.865446938     9.442984571    -3.628034434
 H       -4.182157774     9.945943278    -3.529122908
 H       -4.747508787     8.799501629    -7.134453129
 H       -4.195284967    10.160778616    -6.142616208
 H       -5.880045378     9.656364837    -6.098870470
 H       -6.019169495    14.512737013     0.507608508
 H       -7.443722130    13.886719356    -0.305721015
 H       -6.111436456    14.515187744    -1.264918264
 H       -6.061396303    10.703584034    -1.660238537
 H       -6.132281914    12.225666468    -2.567986002
 H       -7.468812833    11.750331991    -1.527511210
 H       -4.799489496    12.705865661     2.542226168
 H       -3.331752842    13.297315122     3.305710415
 H       -3.339705053    11.698444545     2.575582228
 H       -1.265521446    13.967026829     0.276367532
 H       -1.199437052    12.488598320     1.255011404
 H       -1.361826745    14.058034737     2.030168652
 H       -2.523888285    -1.684778509    -0.733341211
 H       -2.445604159    -1.639944237    -2.487359680
 H       -2.704160369    -0.145052301    -1.599799187
 H        0.884404895    -0.071259060    -2.961476350
 H       -0.652492270     0.815003662    -2.962592340
 H       -0.535322526    -0.762844815    -3.730464188
 H       -0.461593482    -2.980716373     0.735158726
 H       -0.649618909    -2.878893712     2.479346659
 H        0.899973390    -2.477228099     1.753873342
 H       -0.657359304     0.835306899     2.883909461
 H        0.775152656    -0.193979357     3.053504005
 H       -0.775392510    -0.720478004     3.695143420

