187   

Si        0.000000000     0.000000000     0.000000000
 C        1.865383072     0.000000000     0.000000000
 C       -0.676535509     1.711825178     0.000000000
 C        0.122673623     2.801328970    -0.360653523
 C       -0.398477661     4.095068855    -0.357765320
 C       -1.729167855     4.328617543    -0.001308100
 C       -2.530083857     3.235185008     0.354936080
 C       -2.012571102     1.942855002     0.354275692
 C       -2.317368605     5.663698345     0.016178046
 C       -1.662319508     6.793557027    -0.300846033
 C       -2.254065802     8.127137139    -0.282168718
 C       -1.458639747     9.224204708    -0.635868948
 C       -1.981672860    10.515893507    -0.632205859
 C       -3.312665800    10.740156798    -0.266833399
 C       -4.109887827     9.643595378     0.087681201
 C       -3.586461469     8.352868193     0.076537805
Si       -4.063719360    12.422508556    -0.241524797
 C       -5.175067089    12.567440082     1.207299514
 C       -4.958202224    11.889221307     2.342191981
 C       -5.801486389    11.956476762     3.534725250
 C       -5.441791509    11.183930015     4.648531575
 C       -6.198819581    11.203602555     5.807866251
 C       -7.420763671    11.907503941     5.849088253
 C       -7.797206179    12.659847724     4.720499909
 C       -6.980104940    12.703332045     3.597082496
 N       -8.177548742    11.915955074     7.038586840
 C       -8.204450337    10.672340631     7.834658849
 C       -9.500127802    12.562408056     6.968822850
 C       -8.942788956     9.495077045     7.168862565
 C       -7.970468335     8.428600530     6.623615124
 N       -8.528536280     7.599220458     5.532741683
 C       -8.845708047     8.375331983     4.375824795
 C       -7.765365654     8.918503564     3.656791368
 C       -7.999668446     9.681502967     2.524815390
 C       -9.305525764     9.883438809     2.052430971
 C      -10.370809600     9.323098840     2.758795939
 C      -10.151030759     8.575954768     3.912081295
 C       -9.595541318     6.696287373     5.998899727
 C       -9.499379952    10.698267053     0.851392517
 C      -10.697483111    10.957855624     0.310903903
Si      -10.948528047    11.973389676    -1.187281958
 C       -9.631663999    13.250032100    -1.328083497
 C       -9.099921032    13.806718625    -0.157918725
 C       -8.101837300    14.775628220    -0.225582337
 C       -7.635318413    15.231701254    -1.462173642
 C       -8.177521074    14.683449010    -2.631310310
 C       -9.163858806    13.701399548    -2.566849401
 C       -6.591874497    16.244757611    -1.575385695
 C       -5.999208412    16.839962889    -0.526468835
 C       -4.955148178    17.853875528    -0.625246350
 C       -4.462204006    18.311643198    -1.849400088
 C       -3.462501924    19.283337656    -1.895676425
 C       -2.923548851    19.805218143    -0.715819278
 C       -3.413605449    19.343613259     0.513672722
 C       -4.419023515    18.382645761     0.556823474
Si       -1.603982338    21.087779807    -0.754976085
 C       -0.908117611    21.305202065    -2.471858124
 C       -2.308159449    22.754477367    -0.166022903
 C       -0.233300756    20.542817044     0.448879892
 C      -10.946637216    10.842305193    -2.714937562
 C      -12.634177926    12.841607653    -1.056127070
 C       -2.681751875    13.724540348    -0.136380638
 C       -5.086471315    12.714547371    -1.811463418
 C       -0.619992590    -0.917294009    -1.548186102
 C       -0.653789931    -0.909316169     1.539676017
 H        1.170691267     2.681656822    -0.648527339
 H        0.245282316     4.926330003    -0.639329179
 H       -3.569696281     3.395121995     0.635429084
 H       -2.685288780     1.129710555     0.640883593
 H       -3.369496784     5.695777944     0.315362860
 H       -0.610953445     6.762597728    -0.600543356
 H       -0.419574777     9.069737330    -0.919177330
 H       -1.314417602    11.331449224    -0.922868346
 H       -5.160272353     9.758878786     0.379849620
 H       -4.227324323     7.517343854     0.353947340
 H       -6.022326509    13.258060562     1.092702309
 H       -4.105623982    11.203401365     2.464982543
 H       -4.530440258    10.584358337     4.618580664
 H       -5.846391962    10.666971707     6.684208496
 H       -8.730119252    13.213761716     4.707169490
 H       -7.284310316    13.311698512     2.743864905
 H       -9.993066173    12.515266725     7.953990469
 H      -10.174430274    12.111962480     6.222034361
 H       -9.365430198    13.633086194     6.729519621
 H       -9.169409850     6.014461690     6.755416213
 H       -9.937474671     6.071585101     5.155090662
 H      -10.466577688     7.203672067     6.439249346
 H       -6.746446912     8.744967736     4.001520046
 H       -7.153054391    10.125133408     1.993273377
 H      -11.394015467     9.469682176     2.412950850
 H      -10.999872851     8.162732836     4.447350744
 H       -8.557683930    11.086440433     0.435147595
 H      -11.621621039    10.545830336     0.743118233
 H       -9.437722775    13.497432088     0.837841452
 H       -7.691856794    15.182430461     0.697530520
 H       -7.825544125    15.024287068    -3.602768897
 H       -9.546628618    13.305337826    -3.510751614
 H       -6.308964909    16.502880287    -2.599172714
 H       -6.286375076    16.578982112     0.497428285
 H       -4.859334029    17.915009910    -2.781888232
 H       -3.120597430    19.607750202    -2.882293977
 H       -3.027769916    19.714582912     1.467746645
 H       -4.789057823    18.037839585     1.521052295
 H       -7.157736412    10.393530135     8.090101996
 H       -8.683744419    10.915455584     8.811372332
 H       -9.642771257     9.032531221     7.885822776
 H       -9.578349987     9.872113605     6.341946731
 H       -7.047515612     8.912745023     6.227017118
 H       -7.641642887     7.749454092     7.439169110
 H        2.263348688    -1.029221659     0.049743156
 H        2.260462135     0.551480498     0.872577173
 H        2.275490509     0.471309988    -0.910223418
 H       -0.091138168    22.048810596    -2.479139598
 H       -1.677658202    21.650457293    -3.184322018
 H       -0.494424223    20.354957094    -2.855536638
 H       -1.465849548    23.496914338    -0.279795801
 C       -3.487283974    23.233845980    -1.032597324
 C       -2.748188001    22.757443465     1.308763111
 H       -0.714794810    20.506919845     1.469407816
 C        0.301760194    19.134146915     0.132520888
 C        0.948283341    21.525912058     0.519291776
 H      -11.108389687    11.517186265    -3.604465573
 C       -9.604445270    10.113335555    -2.902625450
 C      -12.080382271     9.801323428    -2.698171115
 H      -13.402597908    12.020576388    -0.965059037
 C      -12.735738178    13.731080277     0.196420621
 C      -12.978517771    13.683228646    -2.297080043
 H       -2.005250417    13.522513567    -1.017094580
 C       -3.181983789    15.171474279    -0.250807605
 C       -1.847950427    13.590630115     1.151485545
 H       -5.554700876    13.736860851    -1.682838484
 C       -4.245160450    12.737274096    -3.098353158
 C       -6.223542539    11.690623701    -1.971289256
 H       -0.137607280    -1.936609727    -1.514169421
 C       -2.146597308    -1.112564839    -1.574387363
 C       -0.188392263    -0.228110721    -2.855656141
 H       -1.778299146    -0.916765017     1.440529154
 C       -0.180937609    -2.370814608     1.636485516
 C       -0.301293806    -0.180282247     2.848913540
 H       -3.233681599    23.340262998    -2.095210384
 H       -3.823141856    24.225440903    -0.696538747
 H       -4.363667438    22.573387490    -0.964532877
 H       -1.941358209    22.497670880     2.005706791
 H       -3.593618555    22.082636843     1.502970431
 H       -3.088578863    23.763082121     1.596337266
 H       -0.482796027    18.363823791     0.126278007
 H        1.028168216    18.826340891     0.898287464
 H        0.826543134    19.080124486    -0.830423020
 H        0.651917049    22.542174994     0.809626312
 H        1.503697207    21.596474604    -0.425347430
 H        1.671906252    21.189238946     1.276084782
 H       -8.744450106    10.793330444    -2.982127067
 H       -9.619460763     9.526441598    -3.831663970
 H       -9.388357088     9.401255960    -2.092270730
 H      -13.081904583    10.246489947    -2.645426016
 H      -11.988231662     9.082296046    -1.872017614
 H      -12.058304028     9.207797203    -3.623709969
 H      -12.555058522    13.187134802     1.133692018
 H      -13.746379836    14.155905825     0.275989665
 H      -12.044993959    14.586121213     0.169789282
 H      -13.016264703    13.097198970    -3.224327753
 H      -12.280101080    14.517206275    -2.456397313
 H      -13.973684303    14.136451184    -2.180294358
 H       -3.732318945    15.373801635    -1.180070693
 H       -2.332598675    15.870142558    -0.245585075
 H       -3.827356171    15.471348626     0.586639586
 H       -1.400586025    12.596542605     1.283814691
 H       -2.428829826    13.814450838     2.057999480
 H       -1.013249700    14.305430261     1.135535435
 H       -3.469080038    13.513645607    -3.096107498
 H       -4.889170216    12.949386248    -3.963836475
 H       -3.756876464    11.775579335    -3.308052306
 H       -6.909707132    11.667871356    -1.112197367
 H       -5.861573188    10.668259303    -2.143524379
 H       -6.841339820    11.955514442    -2.842475199
 H       -2.527578511    -1.683618830    -0.718346886
 H       -2.437660598    -1.676549987    -2.472492880
 H       -2.697814685    -0.162419109    -1.618626578
 H        0.899471333    -0.122024658    -2.954758346
 H       -0.633072292     0.770053066    -2.978736490
 H       -0.519085743    -0.820513959    -3.720750814
 H       -0.458252745    -2.976231106     0.763931999
 H       -0.643398114    -2.857719859     2.507368060
 H        0.904508758    -2.461437673     1.775284108
 H       -0.657650551     0.859575841     2.875820505
 H        0.777149495    -0.165208176     3.054947146
 H       -0.772297477    -0.688433517     3.702301046

