187   

Si        0.000000000     0.000000000     0.000000000
 C        1.865156774     0.000000000     0.000000000
 C       -0.685695052     1.708159533     0.000000000
 C        0.119397386     2.812993927     0.294242886
 C       -0.415083065     4.101565935     0.290185409
 C       -1.764792536     4.314097110    -0.001659636
 C       -2.571186711     3.205418535    -0.292684365
 C       -2.040417539     1.918701909    -0.291506856
 C       -2.369061699     5.642042831    -0.018179369
 C       -1.714047261     6.787052739     0.239015139
 C       -2.324277323     8.112601344     0.220897648
 C       -3.676197270     8.313680072    -0.072517934
 C       -4.220429394     9.597298451    -0.079284805
 C       -3.417534213    10.708962876     0.194481386
 C       -2.062161863    10.512545467     0.488113870
 C       -1.525534849     9.227733094     0.506251162
Si       -4.120917282    12.408871174     0.189327132
 C       -2.781163963    13.611275915    -0.124456031
 C       -2.532556180    14.708423126     0.601359184
 C       -1.447445934    15.650732585     0.318907218
 C       -1.295540289    16.764186542     1.159852124
 C       -0.287491686    17.688247963     0.941120408
 C        0.628542754    17.487926365    -0.106119874
 C        0.491651623    16.375450262    -0.943106624
 C       -0.549090152    15.474551793    -0.734676263
 N        1.639007413    18.490292900    -0.263300332
 C        2.693021388    18.359916311     0.769186076
 C        2.185912593    18.611861325    -1.625998403
 C        3.570118883    17.098348924     0.629028495
 C        4.198056236    16.674106408     1.970813360
 N        3.533418398    15.532446690     2.633511795
 C        2.218997561    15.770187006     3.101125895
 C        1.987804471    16.908331897     3.901284258
 C        0.716241226    17.177942529     4.379597186
 C       -0.350295917    16.300475056     4.135272637
 C       -0.107783886    15.151811021     3.377658729
 C        1.158410353    14.877729529     2.874078075
 C        3.747679185    14.264315225     1.914850709
 C       -1.672126897    16.637562145     4.665728064
 C       -2.768359873    15.884654183     4.501747652
Si       -4.411548058    16.324994659     5.173624921
 C       -4.286695758    17.304067970     6.723825960
 C       -3.216290414    17.088486795     7.601828088
 C       -3.110077584    17.823472040     8.779424029
 C       -4.075924588    18.781071794     9.116330076
 C       -5.147293506    18.987473613     8.243044646
 C       -5.253987739    18.256191736     7.060587877
 C       -3.921720294    19.526622686    10.361237908
 C       -4.771852806    20.472022150    10.796681628
 C       -4.619102808    21.218399348    12.041192480
 C       -3.549287165    21.014579070    12.916506692
 C       -3.442836518    21.751162922    14.096263048
 C       -4.410933024    22.703440630    14.430179325
 C       -5.485793671    22.908560859    13.554473574
 C       -5.585817602    22.176723088    12.374631825
Si       -4.285280114    23.683815833    15.983135205
 C       -3.002138854    22.978533239    17.138941329
 C       -3.808298764    25.478275694    15.563698878
 C       -5.993741271    23.691383587    16.822417143
 C       -5.333710665    17.332040980     3.844926902
 C       -5.384154833    14.727131107     5.505246220
 C       -5.475228851    12.601862354    -1.123588954
 C       -4.857221926    12.695703578     1.923581030
 C       -0.653209868    -0.905133171    -1.542271142
 C       -0.612023603    -0.925002889     1.547096813
 H        1.182017743     2.709253451     0.530419947
 H        0.233390693     4.945143448     0.519375226
 H       -3.625316242     3.348950544    -0.522625406
 H       -2.717845063     1.093130052    -0.527444012
 H       -3.435448831     5.654893183    -0.262891807
 H       -0.648127513     6.776384260     0.484109896
 H       -4.318714993     7.464288501    -0.297019717
 H       -5.284685427     9.692366561    -0.310932882
 H       -1.389639028    11.347974844     0.711368007
 H       -0.471710461     9.091286916     0.741380558
 H       -2.170587487    13.363162746    -1.008429851
 H       -3.125472900    14.986893767     1.484018067
 H       -1.989854916    16.917946356     1.990284146
 H       -0.190272521    18.565419534     1.579429154
 H        1.188304804    16.208461980    -1.758512930
 H       -0.648791840    14.618225632    -1.401841811
 H        2.795595362    19.530849402    -1.674997725
 H        1.352255686    18.733420341    -2.339910902
 H        2.807091250    17.765148061    -1.952750260
 H        4.823527560    14.145503239     1.700746378
 H        3.193508236    14.184241851     0.966016327
 H        3.455702693    13.423718114     2.570189220
 H        2.809581876    17.577415566     4.141873431
 H        0.549662652    18.078193011     4.972613223
 H       -0.920148755    14.453139986     3.166995160
 H        1.299490427    13.983095241     2.275165177
 H       -1.681177059    17.583082246     5.227415184
 H       -2.737884802    14.941981758     3.933671666
 H       -2.435762845    16.348383657     7.393681329
 H       -2.267601831    17.647132476     9.445837211
 H       -5.912098317    19.724364040     8.481303047
 H       -6.114565728    18.462660484     6.418641664
 H       -3.036542054    19.261246921    10.946842756
 H       -5.657106412    20.736413595    10.210844322
 H       -2.785259270    20.275447869    12.682436642
 H       -2.582436138    21.548685375    14.740109698
 H       -6.272996569    23.638457395    13.763781737
 H       -6.426913278    22.351441013    11.706460047
 H        3.321094909    19.275670039     0.728081914
 H        2.187952527    18.366117211     1.764224580
 H        2.958357770    16.267678859     0.223216727
 H        4.361711743    17.273200919    -0.119974296
 H        5.264609611    16.390536838     1.816652575
 H        4.221320521    17.528649146     2.683041345
 H        2.262519000    -1.029932842    -0.041192836
 H        2.275261834     0.478505961     0.906580784
 H        2.261219894     0.543653286    -0.876976264
 H       -2.963338273    23.547279862    18.085184481
 H       -1.992008584    23.004273340    16.694083844
 H       -3.232611259    21.927882333    17.392912402
 H       -3.685631047    26.000603973    16.556425812
 C       -2.470504943    25.571108349    14.807039387
 C       -4.882551453    26.231422319    14.758997200
 H       -6.699787814    24.168224835    16.081721137
 C       -6.510877555    22.271764123    17.117601436
 C       -6.038643463    24.521202288    18.117754864
 H       -6.341983607    17.575591361     4.288089872
 C       -4.618200146    18.656330373     3.522876910
 C       -5.567753611    16.562924948     2.533119673
 H       -5.445311602    14.188164595     4.513703256
 C       -4.669527935    13.806203497     6.509749514
 C       -6.820125165    14.982597178     5.993618320
 H       -6.275523996    11.850571489    -0.861286638
 C       -6.117585499    14.000826357    -1.120930543
 C       -4.971727605    12.281392792    -2.542257153
 H       -5.066173742    13.802001567     2.000536730
 C       -6.177711431    11.946238265     2.166754405
 C       -3.855387467    12.311269896     3.028129666
 H       -1.778042794    -0.907298168    -1.446639100
 C       -0.293882245    -0.175983330    -2.849586116
 C       -0.186494458    -2.368457170    -1.639391326
 H       -0.114559180    -1.937245907     1.513547344
 C       -0.191792446    -0.229576808     2.854968244
 C       -2.135307955    -1.143719949     1.572710103
 H       -1.628115826    25.127747391    15.353389093
 H       -2.205889893    26.624701244    14.637433855
 H       -2.507853934    25.100019794    13.814232303
 H       -5.852837680    26.283721291    15.268818309
 H       -5.047666051    25.801414524    13.761094315
 H       -4.566810833    27.272069243    14.594327315
 H       -6.559680632    21.633192969    16.223909648
 H       -7.534017272    22.318653987    17.517108008
 H       -5.909629999    21.743096362    17.869094890
 H       -5.748423768    25.569834062    17.972864053
 H       -5.406928533    24.106235793    18.914295411
 H       -7.063474022    24.538504729    18.516523198
 H       -4.474030437    19.300123764     4.401372059
 H       -5.212547095    19.243276178     2.808570548
 H       -3.632980433    18.509518460     3.056140407
 H       -6.135790103    15.633665172     2.668103222
 H       -4.632704478    16.319636898     2.007926449
 H       -6.154064745    17.179593575     1.836201251
 H       -3.646706585    13.539098308     6.209619854
 H       -5.219474452    12.860016711     6.613371525
 H       -4.614161751    14.238459732     7.519394354
 H       -7.429012113    15.551273474     5.279421711
 H       -6.858321991    15.508504257     6.958419873
 H       -7.341087650    14.026457972     6.147783813
 H       -6.573921105    14.268966777    -0.159237653
 H       -6.923754638    14.046046281    -1.866930011
 H       -5.408419159    14.797699058    -1.388078469
 H       -4.536195710    11.276552781    -2.634218326
 H       -4.225053711    13.001545045    -2.904628583
 H       -5.806890909    12.319359698    -3.256219174
 H       -6.975650452    12.230826649     1.469510794
 H       -6.557118922    12.170289666     3.174794274
 H       -6.066121239    10.854095653     2.120183338
 H       -2.909650651    12.868016175     2.974258810
 H       -3.605913816    11.239993518     3.026122869
 H       -4.283958703    12.515611588     4.020458056
 H       -0.646298642     0.865116674    -2.876735863
 H       -0.764389263    -0.681353844    -3.704989056
 H        0.785173184    -0.165070079    -3.052649668
 H       -0.473030018    -2.974855578    -0.770468535
 H        0.899432435    -2.464176956    -1.770796282
 H       -0.644970203    -2.850880473    -2.514940479
 H        0.894357018    -0.108035217     2.955603087
 H       -0.515148157    -0.826760051     3.719666322
 H       -0.650527141     0.762157670     2.977732116
 H       -2.509374819    -1.709205703     0.709969567
 H       -2.700586063    -0.202867788     1.631047547
 H       -2.415931128    -1.724165753     2.463817327

