187   

Si        0.000000000     0.000000000     0.000000000
 C        1.865133130     0.000000000     0.000000000
 C       -0.679819305     1.710830855     0.000000000
 C        0.119120957     2.802130480    -0.356050783
 C       -0.403831535     4.095099496    -0.353400254
 C       -1.735981988     4.326352598    -0.000754338
 C       -2.536535388     3.231386151     0.351268782
 C       -2.017318776     1.939666041     0.350250280
 C       -2.325389282     5.661145201     0.016067143
 C       -1.668918069     6.790846454    -0.298182825
 C       -2.256730134     8.126209460    -0.281879336
 C       -3.588749281     8.359480898     0.070501278
 C       -4.109600119     9.653239105     0.072465114
 C       -3.311060121    10.740862105    -0.294274621
 C       -1.975581000    10.510082944    -0.650902316
 C       -1.455516527     9.218912035    -0.639329302
Si       -3.966916919    12.458755379    -0.302317474
 C       -3.244073470    13.444662652    -1.663986386
 C       -2.846084631    12.919089373    -2.830166523
 C       -2.266236022    13.694915671    -3.928331387
 C       -1.889437823    13.021115627    -5.101105727
 C       -1.336474083    13.706358581    -6.169641474
 C       -1.178811996    15.105750793    -6.107570424
 C       -1.551951676    15.782230301    -4.937969812
 C       -2.070148450    15.075153758    -3.857180152
 N       -0.604667007    15.749159151    -7.237773904
 C       -1.409240058    15.614641230    -8.473930260
 C       -0.140191871    17.130209365    -7.017586139
 C       -2.841993068    16.168336850    -8.371293648
 C       -3.860258799    15.064122688    -8.021389399
 N       -5.088035877    15.573742346    -7.386154378
 C       -5.833553081    16.516236605    -8.116545867
 C       -5.947944557    16.374341701    -9.517012932
 C       -6.676678018    17.289777572   -10.257223409
 C       -7.356291715    18.348735798    -9.637056032
 C       -7.267451124    18.469449945    -8.247992040
 C       -6.527644183    17.569027601    -7.491620770
 C       -4.929122682    15.814171996    -5.942828668
 C       -8.111128173    19.286678530   -10.469448028
 C       -8.797594838    20.333014861    -9.991810552
Si       -9.752423911    21.527765079   -10.991735787
 C       -9.289808101    23.247993750   -10.532302058
 C       -8.104895412    23.504005441    -9.834644019
 C       -7.756273471    24.808891421    -9.487433986
 C       -8.576429954    25.884607526    -9.838253289
 C       -9.760177470    25.625656267   -10.542281062
 C      -10.113965388    24.323821530   -10.886310372
 C       -8.252428856    27.265771511    -9.496630195
 C       -7.153231234    27.651337369    -8.826395030
 C       -6.830481222    29.032970053    -8.485431636
 C       -7.653957941    30.106982465    -8.832645257
 C       -7.307039210    31.412888613    -8.486515513
 C       -6.123276961    31.673532074    -7.789221015
 C       -5.295470351    30.597879719    -7.439862027
 C       -5.647176796    29.295156706    -7.781707344
Si       -5.651967251    33.391524605    -7.325458900
 C       -6.682951170    34.653711232    -8.233073605
 C       -5.897012261    33.633000752    -5.453360859
 C       -3.807930422    33.635217536    -7.730516867
 C       -9.438122337    21.270184826   -12.849815218
 C      -11.604954632    21.264800534   -10.643129002
 C       -5.858180180    12.450104756    -0.506555097
 C       -3.530350806    13.293075596     1.349518136
 C       -0.618762351    -0.918855414    -1.547769322
 C       -0.653244042    -0.908927331     1.540118293
 H        1.168430602     2.684173002    -0.640459052
 H        0.240098089     4.927596164    -0.631187622
 H       -3.577020221     3.389363135     0.628787916
 H       -2.689784466     1.125115405     0.633660254
 H       -3.378103294     5.692806937     0.311827626
 H       -0.616021363     6.758500176    -0.593682803
 H       -4.232875393     7.528342267     0.351291005
 H       -5.156238968     9.773245524     0.365123108
 H       -1.304852286    11.324390496    -0.945555821
 H       -0.414777609     9.059085345    -0.915274022
 H       -3.170176594    14.524207826    -1.465318544
 H       -2.918139118    11.844389906    -3.052325095
 H       -2.021735918    11.940261244    -5.168399337
 H       -1.009575030    13.168116607    -7.056954312
 H       -1.440417727    16.859539593    -4.860838717
 H       -2.336871519    15.617764659    -2.949397181
 H        0.463304651    17.441757520    -7.888514274
 H        0.527870336    17.156490345    -6.138784989
 H       -0.946835108    17.865728831    -6.873883143
 H       -4.358828373    14.983336285    -5.485498729
 H       -5.923903222    15.820928666    -5.462599443
 H       -4.403635868    16.752491999    -5.705198192
 H       -5.461409374    15.544723603   -10.021894237
 H       -6.733822376    17.173374696   -11.339827462
 H       -7.787250547    19.283186297    -7.739526747
 H       -6.483264291    17.700941437    -6.415295262
 H       -8.058273591    19.050023689   -11.540423037
 H       -8.839441664    20.538150617    -8.909199867
 H       -7.421012289    22.701581959    -9.539019990
 H       -6.831949740    24.982953089    -8.939755071
 H      -10.412546250    26.449590914   -10.824561812
 H      -11.050189644    24.181995514   -11.433103251
 H       -8.987135980    28.003841977    -9.831699894
 H       -6.418201041    26.913617885    -8.491488355
 H       -8.578868983    29.931732551    -9.379002049
 H       -7.991900210    32.211313091    -8.785199227
 H       -4.358037226    30.741289426    -6.895059686
 H       -4.992470060    28.472683335    -7.499936748
 H       -0.858612617    16.130456419    -9.292649430
 H       -1.422986162    14.537765075    -8.755172195
 H       -2.886096292    16.973622410    -7.613368643
 H       -3.134357329    16.655320189    -9.320412091
 H       -4.145322661    14.496091896    -8.935263977
 H       -3.405212671    14.312756818    -7.334424988
 H        2.262765574    -1.029160736     0.056032368
 H        2.260680842     0.556371311     0.869310329
 H        2.275687709     0.465483916    -0.913033197
 H       -6.364441153    35.681616116    -7.983469266
 H       -7.753924520    34.566808054    -7.979305189
 H       -6.584327042    34.532499699    -9.327179078
 H       -5.646157500    34.714227467    -5.250281362
 C       -7.352187996    33.389457936    -5.012979144
 C       -4.968766199    32.758766971    -4.591288311
 H       -3.251249547    32.878026296    -7.105079122
 C       -3.487115409    33.350934862    -9.209063361
 C       -3.277506694    35.032088783    -7.361623427
 H       -9.637405690    20.177043370   -13.047720819
 C      -10.374707130    22.093521357   -13.751928001
 C       -7.981048834    21.572852226   -13.245184334
 H      -12.152713343    21.996970832   -11.304053948
 C      -12.088403548    19.847834480   -10.997796267
 C      -11.978833135    21.572757466    -9.182227867
 H       -6.264825781    11.862668751     0.366599680
 C       -6.479423051    13.857713396    -0.461788087
 C       -6.301758056    11.751942509    -1.804596285
 H       -3.957319634    14.335941910     1.295993270
 C       -4.151248575    12.583435224     2.565165594
 C       -2.010045848    13.409471427     1.560355609
 H       -0.131637896    -1.936024705    -1.514834906
 C       -2.144414877    -1.121334787    -1.571948493
 C       -0.192110512    -0.227210289    -2.855532807
 H       -1.777820776    -0.915567044     1.441917114
 C       -0.181468701    -2.370754276     1.636463695
 C       -0.299050232    -0.180081147     2.848986466
 H       -8.077556694    34.034072428    -5.525763850
 H       -7.460896105    33.598910728    -3.939131274
 H       -7.672948056    32.347612699    -5.156991543
 H       -3.902649849    32.931395749    -4.785321841
 H       -5.164220592    31.683639646    -4.709690864
 H       -5.126010531    32.982183140    -3.525916209
 H       -3.786033868    32.343194599    -9.531560959
 H       -2.403254812    33.418827834    -9.379740268
 H       -3.953617367    34.069500965    -9.895882167
 H       -3.409064283    35.281313159    -6.300772289
 H       -3.737460373    35.834578008    -7.953411763
 H       -2.196816146    35.086838751    -7.558153693
 H      -11.437577331    21.867742232   -13.598561453
 H      -10.165191378    21.874619730   -14.809146018
 H      -10.239328384    23.177695166   -13.633156113
 H       -7.241140978    20.994778507   -12.674794043
 H       -7.722176560    22.635755789   -13.133507343
 H       -7.817613200    21.325810934   -14.303423721
 H      -11.933034991    19.585790370   -12.052217179
 H      -13.169071923    19.761888112   -10.815445461
 H      -11.610732289    19.067572704   -10.387601445
 H      -11.700455830    22.588003172    -8.866141502
 H      -11.531268292    20.867769429    -8.468215283
 H      -13.067319238    21.497815775    -9.048248937
 H       -6.272017622    14.396892815     0.471226330
 H       -7.574439537    13.786534552    -0.535984952
 H       -6.156594729    14.494237562    -1.297515965
 H       -5.945370565    10.715906433    -1.888312939
 H       -5.977503943    12.286139244    -2.709895223
 H       -7.398905952    11.703826474    -1.851580297
 H       -5.247623900    12.544346312     2.534446860
 H       -3.889447880    13.120504639     3.488542234
 H       -3.783350565    11.555410505     2.695455486
 H       -1.497604825    13.955142566     0.756503711
 H       -1.517563061    12.431711641     1.664775412
 H       -1.799256983    13.959015233     2.488917057
 H       -2.521956102    -1.692450906    -0.714372798
 H       -2.433505272    -1.688899361    -2.468544142
 H       -2.700268649    -0.174129156    -1.617938677
 H        0.895091620    -0.115241985    -2.955813762
 H       -0.642369824     0.768357712    -2.978442980
 H       -0.520271076    -0.821595003    -3.720330214
 H       -0.459285355    -2.975974260     0.763922342
 H       -0.644206045    -2.857513307     2.507377664
 H        0.903945585    -2.462311727     1.775256694
 H       -0.655973380     0.859440892     2.877140292
 H        0.779730214    -0.164557589     3.053501447
 H       -0.768351066    -0.689008366     3.702961432

