187   

Si        0.000000000     0.000000000     0.000000000
 C        1.865821802     0.000000000     0.000000000
 C       -0.660951128     1.718092751     0.000000000
 C        0.162953733     2.798275182     0.332561182
 C       -0.339065078     4.099199122     0.332144564
 C       -1.679916177     4.348916704     0.027066390
 C       -2.506180315     3.264857091    -0.296480232
 C       -2.003625551     1.966179904    -0.314088353
 C       -2.242479915     5.694816044     0.016050582
 C       -1.546106760     6.810759407     0.291900072
 C       -2.097745582     8.160889695     0.283960523
 C       -1.251241222     9.234170955     0.592583006
 C       -1.731186101    10.541160217     0.598147941
 C       -3.075021699    10.803391655     0.304901612
 C       -3.922945902     9.733252507    -0.000026510
 C       -3.437255691     8.426391337    -0.011656939
Si       -3.729044403    12.530642313     0.307595393
 C       -5.529730757    12.379186592     0.573586903
 C       -6.552433484    12.920160815    -0.100008446
 C       -7.953186074    12.683862310     0.262740860
 C       -8.979418251    13.278685815    -0.481549893
 C      -10.313292848    13.071324949    -0.159341844
 C      -10.672475007    12.291548298     0.956984148
 C       -9.639625460    11.692904796     1.708103013
 C       -8.313392843    11.875128551     1.346699978
 N      -12.011527003    12.060865855     1.312465376
 C      -13.077873654    12.827097942     0.656225213
 C      -12.279534467    11.783722732     2.733933744
 C      -13.193785744    14.281432801     1.144326638
 C      -14.367579635    15.029035967     0.485780203
 N      -14.339342289    15.110166682    -0.992698804
 C      -13.052501251    15.300447452    -1.549256797
 C      -12.276389049    16.371145234    -1.057634070
 C      -11.010751629    16.602696515    -1.566591642
 C      -10.486172653    15.798989015    -2.590866559
 C      -11.268452847    14.758126773    -3.093766381
 C      -12.544453826    14.514845626    -2.595333858
 C      -15.196194008    14.107908090    -1.646890730
 C       -9.142015698    16.093313772    -3.087638001
 C       -8.528411863    15.404738313    -4.058355996
Si       -6.850954565    15.764962403    -4.684710402
 C       -5.838622138    14.231118515    -4.714203863
 C       -6.086042003    13.186904698    -3.817377494
 C       -5.310768633    12.027051025    -3.849247581
 C       -4.260402465    11.899388081    -4.761582777
 C       -4.011394928    12.950754843    -5.655054755
 C       -4.793117951    14.101335150    -5.636929367
 C       -3.414423284    10.715442961    -4.845537176
 C       -3.514527554     9.622414119    -4.070314868
 C       -2.639416365     8.460456167    -4.196108061
 C       -1.617048637     8.398631316    -5.147165526
 C       -0.797173532     7.275360642    -5.243512038
 C       -0.970580818     6.192719599    -4.375904692
 C       -1.987898416     6.256017111    -3.414297555
 C       -2.809688802     7.376637824    -3.325798363
Si        0.108174970     4.707031627    -4.497707750
 C        1.420530839     4.912808355    -5.809051390
 C        0.914340247     4.432231021    -2.799603045
 C       -0.931106700     3.166081805    -4.911503793
 C       -6.994238799    16.500666647    -6.430874231
 C       -5.966745802    17.017218013    -3.555424915
 C       -3.001210226    13.475952649     1.792818043
 C       -3.259731485    13.353284884    -1.345351672
 C       -0.646733147    -0.896902085    -1.549726419
 C       -0.630325030    -0.916216280     1.542790939
 H        1.217005830     2.666376455     0.591790000
 H        0.327273278     4.923785985     0.581119191
 H       -3.553556117     3.436330265    -0.537972846
 H       -2.694007036     1.160788758    -0.579112902
 H       -3.305476853     5.747093352    -0.234025986
 H       -0.481697983     6.754720471     0.540056099
 H       -0.204294976     9.047939718     0.823203150
 H       -1.023311511    11.340467768     0.833632247
 H       -4.981351823     9.880885576    -0.239968021
 H       -4.117173676     7.609652785    -0.245703436
 H       -5.728682229    11.737597969     1.454153749
 H       -6.419879900    13.577193549    -0.967637873
 H       -8.736840116    13.916629294    -1.336079142
 H      -11.077724880    13.542692032    -0.773070034
 H       -9.871736409    11.067264420     2.563400181
 H       -7.539816888    11.381553785     1.938206643
 H      -13.362559470    11.788945236     2.935394277
 H      -11.797625820    12.507531363     3.411928120
 H      -11.912001323    10.769489480     2.977594075
 H      -16.217893781    14.185987537    -1.236032950
 H      -14.852190367    13.068361009    -1.532679182
 H      -15.271528743    14.341798639    -2.724566037
 H      -12.679090954    17.016385423    -0.280946832
 H      -10.417100845    17.425706864    -1.167265398
 H      -10.882852882    14.121353837    -3.891962084
 H      -13.124567445    13.697467602    -3.011984547
 H       -8.677905069    16.950863566    -2.581076276
 H       -9.020346028    14.554683472    -4.558176812
 H       -6.897437223    13.233486180    -3.082556202
 H       -5.528829161    11.219688162    -3.150609019
 H       -3.200365704    12.867395159    -6.375669558
 H       -4.555449574    14.883353115    -6.362794121
 H       -2.647374441    10.766657142    -5.625650481
 H       -4.270180726     9.555091990    -3.282849104
 H       -1.453224047     9.230313863    -5.829811579
 H       -0.021028438     7.284267329    -6.013143432
 H       -2.157267510     5.446423672    -2.696080754
 H       -3.587839043     7.412038779    -2.565241396
 H      -12.903196275    12.799351029    -0.445541383
 H      -14.037312266    12.286142008     0.824978375
 H      -13.318897680    14.306010353     2.242719873
 H      -12.238539880    14.811798235     0.949705108
 H      -15.330731829    14.576519384     0.806438652
 H      -14.383936982    16.081434927     0.860062306
 H        2.263087690    -1.027840393    -0.076976653
 H        2.276753679     0.445552637     0.922574135
 H        2.261184855     0.573414371    -0.858508639
 H        2.050724207     4.009065019    -5.884807499
 H        2.086413154     5.762286447    -5.573871655
 H        0.978565253     5.095184712    -6.803912736
 H        0.061252060     4.174107643    -2.102223541
 C        1.914734821     3.263818658    -2.770560335
 C        1.600792022     5.697870843    -2.255276689
 H       -0.206291355     2.301226469    -4.888297703
 C       -2.051228376     2.876263346    -3.897297647
 C       -1.552524233     3.228629957    -6.319209731
 H       -5.941844830    16.748513508    -6.754048016
 C       -7.580219266    15.502231758    -7.445055611
 C       -7.819628517    17.798870776    -6.471619958
 H       -6.605845443    17.946183730    -3.555137630
 C       -5.840784742    16.516396992    -2.105308068
 C       -4.567581808    17.401420901    -4.069160495
 H       -1.944211121    13.741830890     1.504472559
 C       -3.756891427    14.779625192     2.109769002
 C       -2.947603796    12.625214989     3.075830095
 H       -4.210932078    13.360033972    -1.959149526
 C       -2.767200450    14.806472594    -1.232337468
 C       -2.207121135    12.555293665    -2.136756093
 H       -1.772386437    -0.830425706    -1.499253125
 C       -0.191771814    -0.222664007    -2.856344907
 C       -0.265235476    -2.387253098    -1.598384580
 H       -0.148946822    -1.936263721     1.511454645
 C       -0.206278203    -0.228987088     2.853720391
 C       -2.157250211    -1.110131193     1.559074000
 H        1.476605107     2.308846304    -3.089816100
 H        2.270232402     3.104521836    -1.741681710
 H        2.805919477     3.447431908    -3.383590422
 H        0.918197947     6.557094579    -2.176208583
 H        2.461373172     6.013816784    -2.858464863
 H        1.982633921     5.512353531    -1.241715606
 H       -1.702011964     2.818519238    -2.855666688
 H       -2.517890441     1.906170168    -4.119335862
 H       -2.858779726     3.620724792    -3.935468763
 H       -0.809455494     3.337056403    -7.119276556
 H       -2.280055806     4.045335360    -6.428622489
 H       -2.099505684     2.299091486    -6.530899281
 H       -7.022332103    14.556673706    -7.499712891
 H       -7.553466444    15.932535493    -8.456390730
 H       -8.631711796    15.255479503    -7.243498543
 H       -7.409480113    18.595989304    -5.838339013
 H       -8.869093658    17.648855423    -6.180323035
 H       -7.839628058    18.200000806    -7.495185651
 H       -6.805622599    16.303309783    -1.625323523
 H       -5.350544497    17.278050648    -1.483332314
 H       -5.226189119    15.606620644    -2.022961370
 H       -4.577775532    17.854116934    -5.068598369
 H       -3.872655430    16.549421709    -4.094697380
 H       -4.113122666    18.147897183    -3.401790600
 H       -3.771309519    15.491745924     1.274730872
 H       -3.274105180    15.300505031     2.948358154
 H       -4.799349805    14.605131323     2.412608083
 H       -2.385635993    11.688481888     2.958929054
 H       -3.944234780    12.365338292     3.457734296
 H       -2.446138507    13.185025138     3.877854775
 H       -3.476967747    15.473024160    -0.726032938
 H       -2.617441353    15.226218886    -2.238749159
 H       -1.802274325    14.891403703    -0.716720062
 H       -2.510135020    11.517346751    -2.343440886
 H       -1.227537192    12.520489707    -1.645292604
 H       -2.048474122    13.018148438    -3.122097536
 H       -0.474833072     0.839245286    -2.917636204
 H       -0.663428150    -0.714579910    -3.718880544
 H        0.892037690    -0.288633060    -3.018386420
 H       -0.626379585    -2.957808628    -0.733104072
 H        0.817552214    -2.550909779    -1.677842107
 H       -0.712384157    -2.860230887    -2.484891923
 H        0.881169968    -0.125337509     2.960454952
 H       -0.544038261    -0.821732814     3.716011608
 H       -0.649624270     0.769842141     2.975139384
 H       -2.534908600    -1.670256730     0.694277349
 H       -2.707525409    -0.160100577     1.612525321
 H       -2.453289030    -1.684737655     2.448914352

