187   

Si        0.000000000     0.000000000     0.000000000
 C        1.865148870     0.000000000     0.000000000
 C       -0.674788524     1.712899197     0.000000000
 C        0.082143591     2.778588693    -0.498178670
 C       -0.431406430     4.075239262    -0.497018408
 C       -1.713316342     4.335584735    -0.005350267
 C       -2.472816838     3.265910721     0.486965483
 C       -1.962938339     1.970416087     0.487166931
 C       -2.292423263     5.674626961     0.016178786
 C       -1.674625574     6.784103230    -0.423576617
 C       -2.257120767     8.121840450    -0.400420702
 C       -1.502101254     9.194975848    -0.891415323
 C       -2.017305424    10.488839074    -0.889107716
 C       -3.294875385    10.743029613    -0.375772198
 C       -4.049612456     9.673051060     0.118000854
 C       -3.537671273     8.376695977     0.098810193
Si       -3.996952761    12.442073974    -0.361609349
 C       -5.122354062    12.726154841     1.050251942
 C       -5.001875246    12.115252433     2.236645758
 C       -5.897158862    12.335410695     3.373259542
 C       -5.660609401    11.630624101     4.562851630
 C       -6.475598120    11.799701991     5.669727435
 C       -7.528323918    12.739697831     5.644601600
 C       -7.759289603    13.455453000     4.455595048
 C       -6.964638775    13.235738509     3.336779393
 N       -8.344487680    12.893509131     6.784345292
 C       -7.661913473    12.801714989     8.092438787
 C       -9.343319997    13.974541614     6.732899358
 C       -6.416978381    13.702151813     8.203266912
 C       -6.247928004    14.374571417     9.575742938
 N       -7.308689998    15.321337096     9.982273197
 C       -7.843095878    16.152031683     8.982289520
 C       -6.967879006    16.734917429     8.038509452
 C       -7.462375008    17.557180179     7.041997699
 C       -8.825779482    17.885695120     6.984217213
 C       -9.683563178    17.340839494     7.940921307
 C       -9.207518543    16.490743740     8.932814606
 C       -8.251545632    14.766891636    10.965847906
 C       -9.287798594    18.759641697     5.906513993
 C      -10.558301096    19.150002982     5.735801469
Si      -11.071426928    20.246378789     4.364402047
 C       -9.964781948    19.967382455     2.920461988
 C       -9.676696224    18.646097527     2.553048279
 C       -8.845236454    18.377872363     1.468565227
 C       -8.285793294    19.420838641     0.723424260
 C       -8.576535448    20.740127381     1.091202354
 C       -9.406461659    21.012044367     2.177578826
 C       -7.410287542    19.180781643    -0.419043740
 C       -7.062428502    17.961075195    -0.862435145
 C       -6.189284634    17.703174817    -2.001647755
 C       -5.613357752    18.722061263    -2.764218110
 C       -4.784308079    18.421264980    -3.845375799
 C       -4.522091997    17.092265802    -4.191605484
 C       -5.109135343    16.069355083    -3.435315929
 C       -5.937875260    16.371888582    -2.359417275
Si       -3.433145547    16.662597730    -5.611812495
 C       -2.477743813    18.142622530    -6.221066930
 C       -2.244517242    15.284743451    -5.048972325
 C       -4.496887055    15.976090870    -7.033198685
 C      -12.865026928    19.841546554     3.881666990
 C      -10.991035334    22.055786347     4.944269706
 C       -2.625240773    13.759669819    -0.331685724
 C       -4.991010369    12.652616499    -1.971513171
 C       -0.628194921    -0.907665506    -1.550522739
 C       -0.648041840    -0.921461693     1.535032349
 H        1.091124355     2.637216226    -0.895297553
 H        0.179338116     4.887704085    -0.886373475
 H       -3.474261593     3.446445729     0.873321210
 H       -2.603024406     1.176551840     0.881929242
 H       -3.304398997     5.728121378     0.428795353
 H       -0.663227095     6.731950022    -0.836634264
 H       -0.502788334     9.017997104    -1.283880259
 H       -1.386371818    11.284696022    -1.294387451
 H       -5.055313041     9.813155910     0.529350365
 H       -4.146584962     7.560411506     0.483425766
 H       -5.917214266    13.464714354     0.866061093
 H       -4.210007544    11.382386230     2.448716111
 H       -4.832845535    10.922159957     4.613893239
 H       -6.297449763    11.204699761     6.560482451
 H       -8.555900605    14.191354221     4.394751254
 H       -7.172862903    13.794960926     2.423303884
 H       -9.948610918    13.969531101     7.654464122
 H      -10.037016785    13.791750959     5.893238000
 H       -8.901320919    14.981755394     6.625073562
 H       -7.694583440    14.223115263    11.748125939
 H       -9.003772355    14.087070932    10.534942953
 H       -8.775020011    15.598434473    11.473930356
 H       -5.899505929    16.542135395     8.098339260
 H       -6.775322709    17.972647261     6.302020420
 H      -10.746723639    17.584301375     7.919540122
 H       -9.908076122    16.086815282     9.655372415
 H       -8.478069499    19.063414521     5.225231628
 H      -11.355841136    18.846243981     6.427081187
 H      -10.080276633    17.788399994     3.103185670
 H       -8.632362060    17.342565897     1.206647544
 H       -8.150820363    21.565893488     0.524540138
 H       -9.599536595    22.061104591     2.416582808
 H       -7.040032443    20.082690896    -0.913577267
 H       -7.435818553    17.061344231    -0.362140185
 H       -5.803198089    19.764255075    -2.515319018
 H       -4.356104084    19.259910109    -4.400788169
 H       -4.942796552    15.011518007    -3.667326961
 H       -6.397276870    15.565322886    -1.788724521
 H       -8.397564582    13.043897752     8.889310367
 H       -7.386964615    11.734746738     8.255591423
 H       -5.506382516    13.112874346     7.978144695
 H       -6.448007986    14.470754778     7.402398919
 H       -6.133977366    13.595884048    10.361442804
 H       -5.291152841    14.954020929     9.578856499
 H        2.263043603    -1.028536662     0.063293012
 H        2.259280757     0.563013379     0.865786894
 H        2.276730605     0.460042391    -0.915173808
 H       -1.805001359    17.868660676    -7.053352328
 H       -1.851980466    18.569651678    -5.416318505
 H       -3.148243724    18.940463442    -6.585737260
 H       -2.898539852    14.389887916    -4.828586814
 C       -1.233012024    14.869903270    -6.131545181
 C       -1.483599382    15.638591849    -3.759222992
 H       -3.779220429    15.771591925    -7.879502615
 C       -5.214910027    14.658346533    -6.689392167
 C       -5.542545934    16.991420794    -7.529250024
 H      -13.484993689    20.040127212     4.803518714
 C      -13.397646976    20.732120382     2.745548387
 C      -13.056507914    18.365267757     3.489785937
 H      -11.250997381    22.682881470     4.042917677
 C      -12.002462744    22.383855725     6.057414878
 C       -9.583248540    22.457314448     5.420781558
 H       -2.046015558    13.634812538    -1.291965535
 C       -3.169118572    15.198509810    -0.288904550
 C       -1.652593677    13.562546670     0.845037729
 H       -5.325534981    13.729731729    -1.987510558
 C       -4.151155930    12.384911496    -3.232268105
 C       -6.246616005    11.764310083    -2.011005294
 H       -0.157893728    -1.932584063    -1.519432245
 C       -2.157251522    -1.083528262    -1.573741141
 C       -0.189873887    -0.220640986    -2.856793305
 H       -1.773105851    -0.926074265     1.442755301
 C       -0.178454225    -2.385148938     1.615173127
 C       -0.285234187    -0.206504935     2.849254294
 H       -1.704696618    14.540481447    -7.066233500
 H       -0.630358364    14.020835120    -5.776843653
 H       -0.521137111    15.667784621    -6.380861340
 H       -2.148916248    15.868604705    -2.913282771
 H       -0.800377347    16.488830693    -3.881703211
 H       -0.864339257    14.787703580    -3.440397138
 H       -4.530169946    13.848674973    -6.406767699
 H       -5.770531513    14.295199301    -7.566484030
 H       -5.956025280    14.773406351    -5.885823605
 H       -5.104306732    17.936637773    -7.874512440
 H       -6.297913489    17.233462661    -6.767809287
 H       -6.092585986    16.577783210    -8.386726071
 H      -13.375436369    21.803352144     2.983746875
 H      -14.448572643    20.486071726     2.535320399
 H      -12.855270088    20.589709360     1.799797509
 H      -12.727639849    17.660205186     4.265138008
 H      -12.538089919    18.102035827     2.556644751
 H      -14.122042350    18.157810911     3.316050484
 H      -13.045625880    22.211915641     5.763323836
 H      -11.932372056    23.447942721     6.326313390
 H      -11.816975719    21.821722350     6.983185078
 H       -8.801506765    22.301039558     4.665065824
 H       -9.272415745    21.920492976     6.329301114
 H       -9.560091085    23.527088561     5.671578561
 H       -3.807754148    15.453560619    -1.146714015
 H       -2.337571351    15.917550859    -0.307014483
 H       -3.738928195    15.416526918     0.625217055
 H       -1.178186908    12.572211446     0.862992370
 H       -2.131329093    13.715224694     1.823228343
 H       -0.835171251    14.294946675     0.785540415
 H       -3.256571380    13.018840975    -3.304523221
 H       -4.749262304    12.580637333    -4.134163941
 H       -3.819618699    11.339244655    -3.308593001
 H       -6.932335778    11.938971671    -1.170939444
 H       -6.011167258    10.690756123    -2.025249963
 H       -6.821655795    11.963442621    -2.926484591
 H       -2.541957569    -1.661104482    -0.723672952
 H       -2.458826256    -1.631958588    -2.477992563
 H       -2.697329448    -0.126371968    -1.602499607
 H        0.899165630    -0.129700186    -2.957788273
 H       -0.621465181     0.783602821    -2.976512185
 H       -0.530361103    -0.806222531    -3.722835670
 H       -0.464088573    -2.982035756     0.739406976
 H       -0.635817528    -2.878627689     2.485096732
 H        0.907714960    -2.480256049     1.745098184
 H       -0.635875162     0.834736408     2.888749267
 H        0.794540689    -0.198661388     3.049231965
 H       -0.753464913    -0.721068044     3.700376094

