187   

Si        0.000000000     0.000000000     0.000000000
 C        1.865467730     0.000000000     0.000000000
 C       -0.669352386     1.714132040     0.000000000
 C        0.091636045     2.774610962     0.503431578
 C       -0.417752160     4.071725252     0.502198886
 C       -1.700900504     4.338569530     0.016714982
 C       -2.464696977     3.273942648    -0.477897639
 C       -1.956609285     1.977150430    -0.485853431
 C       -2.264726060     5.684606894     0.000930714
 C       -1.615019951     6.773801492     0.443571051
 C       -2.146015490     8.130957187     0.443093116
 C       -3.420136123     8.453942512    -0.029647982
 C       -3.875832834     9.773331185    -0.005190418
 C       -3.060267629    10.792903908     0.490962711
 C       -1.779216369    10.472021529     0.964322091
 C       -1.329729176     9.156711819     0.938981033
Si       -3.578778876    12.558314373     0.560976570
 C       -2.053044729    13.491154159     0.179810093
 C       -1.535074820    14.515835969     0.867266890
 C       -0.298540095    15.198859056     0.474125792
 C        0.168542611    16.263954581     1.256820189
 C        1.334893649    16.937177722     0.919414665
 C        2.075425335    16.530576753    -0.200685786
 C        1.629487703    15.450770595    -0.971071566
 C        0.459077087    14.786292925    -0.626509336
 N        3.268593207    17.279711658    -0.480210748
 C        3.050560573    18.485729552    -1.316893876
 C        4.353859808    16.406601724    -0.975240500
 C        1.944481700    18.423759456    -2.389911348
 C        2.471099478    18.639391919    -3.822134358
 N        3.238586748    17.509159294    -4.372791021
 C        2.676824307    16.230749939    -4.333010356
 C        1.282240752    16.089213351    -4.525359440
 C        0.692249107    14.838220588    -4.492379546
 C        1.454120873    13.679081573    -4.278084820
 C        2.834262995    13.817472395    -4.115576003
 C        3.447101847    15.064091775    -4.162922788
 C        4.691642769    17.667644333    -4.238173445
 C        0.775141245    12.382291799    -4.253359901
 C        1.396062037    11.211663931    -4.057792821
Si        0.599805610     9.566736769    -4.017303009
 C        1.132045983     8.650449778    -2.514941189
 C        1.577069292     9.350122993    -1.388483520
 C        1.981889378     8.660762200    -0.246461945
 C        1.925469291     7.265140734    -0.197896395
 C        1.464674390     6.568384913    -1.322441678
 C        1.069619659     7.252430618    -2.468697529
 C        2.338913521     6.505247086     0.976231502
 C        2.797866407     7.053674861     2.113634479
 C        3.212734126     6.299532250     3.290807263
 C        3.171188758     4.903489853     3.348377847
 C        3.578648632     4.226691403     4.496914938
 C        4.043071366     4.932757714     5.613280645
 C        4.089917929     6.330529777     5.554925127
 C        3.681602765     7.004022241     4.406627097
Si        4.575455324     4.015025250     7.118311725
 C        3.366725276     2.651911334     7.516598866
 C        6.295912633     3.264467009     6.797911320
 C        4.724330214     5.214947940     8.589197555
 C       -1.294341276     9.690673977    -3.964558037
 C        1.108343512     8.604754250    -5.577005416
 C       -4.941025384    12.985590371    -0.690349400
 C       -4.230013597    12.944198923     2.304619791
 C       -0.654856394    -0.925842036    -1.527968800
 C       -0.619091316    -0.891304001     1.563713205
 H        1.098503434     2.627159077     0.903765231
 H        0.190198158     4.883204067     0.902858514
 H       -3.466467296     3.458045906    -0.859987552
 H       -2.598625003     1.187092295    -0.883974797
 H       -3.277064414     5.759169082    -0.401647611
 H       -0.594470622     6.688995363     0.839595355
 H       -4.069558671     7.674205429    -0.421648122
 H       -4.881195466     9.969028182    -0.384289171
 H       -1.095624706    11.231922140     1.360008720
 H       -0.328050231     8.922405235     1.300486473
 H       -1.555716738    13.118759809    -0.736084613
 H       -1.995435923    14.924636048     1.773592529
 H       -0.393721823    16.578080112     2.134898103
 H        1.691914200    17.771274268     1.520902072
 H        2.193501503    15.122243955    -1.845027304
 H        0.134029566    13.941527829    -1.237706651
 H        5.297323729    16.972605991    -1.010546108
 H        4.170175505    15.968897232    -1.968495402
 H        4.497333058    15.580230674    -0.256033574
 H        4.995054790    18.583690160    -4.780119989
 H        5.227370491    16.832237688    -4.720033698
 H        5.032716137    17.760023389    -3.193700404
 H        0.667953596    16.966460512    -4.706237997
 H       -0.386097814    14.755623112    -4.638351084
 H        3.453930699    12.932652794    -3.956193603
 H        4.524873357    15.122877538    -4.052154273
 H       -0.308843090    12.459921109    -4.410629293
 H        2.487838601    11.166307218    -3.910356997
 H        1.628871742    10.444169764    -1.366547388
 H        2.340941653     9.224746948     0.612397108
 H        1.406429286     5.480651457    -1.303079305
 H        0.714622345     6.657706093    -3.314898475
 H        2.270759988     5.418360343     0.869524690
 H        2.878732116     8.140017207     2.215290844
 H        2.813582632     4.331327306     2.493877494
 H        3.516435473     3.134470444     4.487265761
 H        4.444804976     6.936137916     6.393468804
 H        3.726135612     8.091309783     4.381648350
 H        2.791388016    19.292143995    -0.586238348
 H        4.018410135    18.788708775    -1.765564772
 H        1.397507829    17.460200752    -2.340640411
 H        1.174816341    19.187087923    -2.170012877
 H        1.609520230    18.824310490    -4.508669779
 H        3.095538735    19.558381145    -3.867619227
 H        2.261453693    -1.029749568    -0.052169731
 H        2.277871658     0.469568940     0.910242916
 H        2.260135655     0.552001097    -0.872573391
 H        3.661908957     2.110653488     8.432816245
 H        3.296190824     1.913792306     6.698876221
 H        2.353209908     3.061715109     7.682887287
 H        6.567264227     2.706637063     7.740265024
 C        6.305671978     2.259733700     5.631542929
 C        7.378231432     4.328679612     6.541586760
 H        5.397384646     6.051240178     8.239055389
 C        3.371343978     5.829363845     8.992287322
 C        5.374823254     4.585653259     9.834399857
 H       -1.604432177    10.280210557    -4.873938916
 C       -1.990754627     8.318736045    -4.020341938
 C       -1.780167952    10.434307340    -2.710704243
 H        0.563119357     7.617973629    -5.525459309
 C        0.692991493     9.309012515    -6.880627162
 C        2.618347063     8.310355054    -5.623772787
 H       -5.823272788    12.335359058    -0.419200020
 C       -5.388402863    14.456510856    -0.596716060
 C       -4.558094914    12.679644519    -2.148426159
 H       -4.399417089    14.059306145     2.333814092
 C       -5.567550203    12.248902913     2.615536435
 C       -3.218912696    12.584869804     3.408730753
 H       -1.779430570    -0.931860450    -1.429183243
 C       -0.300944028    -0.213120684    -2.846003924
 C       -0.183742591    -2.389023374    -1.607637570
 H       -0.154129163    -1.918554638     1.538387810
 C       -0.165828881    -0.192323202     2.858772739
 C       -2.148567776    -1.059207129     1.601338039
 H        5.607965765     1.424119040     5.769826684
 H        7.304743902     1.811494537     5.530715323
 H        6.081752061     2.728935804     4.662842422
 H        7.499737743     5.036244765     7.371788804
 H        7.194183490     4.913532780     5.628969654
 H        8.356306397     3.845431921     6.404187190
 H        2.847629137     6.322550353     8.161511709
 H        3.521296628     6.599793467     9.762094148
 H        2.680703316     5.092289882     9.423961320
 H        6.391686830     4.214371900     9.652014204
 H        4.787347993     3.759209172    10.253345455
 H        5.461650062     5.337013053    10.632849983
 H       -1.761238135     7.746470940    -4.927226412
 H       -3.082088696     8.451414750    -4.007795710
 H       -1.753717034     7.684958258    -3.152199539
 H       -1.401967383    11.461454041    -2.629611028
 H       -1.522447261     9.912313597    -1.773552340
 H       -2.878262606    10.501176734    -2.716855385
 H       -0.388828156     9.477341595    -6.958441163
 H        0.971073051     8.692462694    -7.747143687
 H        1.191452605    10.278839035    -7.020647787
 H        2.983260719     7.766514388    -4.741057514
 H        3.228244539     9.217653782    -5.730922858
 H        2.852209293     7.677832832    -6.491801065
 H       -5.764893534    14.737351121     0.395312497
 H       -6.212604252    14.644944335    -1.299411587
 H       -4.590076470    15.163810271    -0.863230454
 H       -4.326467580    11.618272852    -2.319674068
 H       -3.702792113    13.272166359    -2.502102428
 H       -5.396489679    12.920013859    -2.817328000
 H       -6.376675997    12.531095770     1.930183596
 H       -5.909976937    12.525837754     3.623267305
 H       -5.490985179    11.152100880     2.610650603
 H       -2.244998016    13.078791484     3.290245214
 H       -3.033313093    11.502931807     3.479853428
 H       -3.605265659    12.895121428     4.389670847
 H       -0.652425811     0.827820336    -2.885056941
 H       -0.774347202    -0.729581568    -3.693088029
 H        0.777489404    -0.205268662    -3.052892582
 H       -0.464706136    -2.984541303    -0.729375674
 H        0.901926616    -2.482975561    -1.742322913
 H       -0.644429386    -2.884560188    -2.474628515
 H        0.924664545    -0.109470260     2.951312546
 H       -0.505984867    -0.764875191     3.733544751
 H       -0.588812693     0.817109742     2.969474460
 H       -2.544189411    -1.636494662     0.756142975
 H       -2.682931958    -0.098779731     1.632284183
 H       -2.444875971    -1.603685586     2.509701871

