187   

Si        0.000000000     0.000000000     0.000000000
 C        1.865198194     0.000000000     0.000000000
 C       -0.668294264     1.715757804     0.000000000
 C        0.083251146     2.768917134     0.532536096
 C       -0.419609447     4.069459698     0.534234767
 C       -1.686076738     4.346453968     0.012466819
 C       -2.440574713     3.289704822    -0.513678296
 C       -1.940799874     1.990049552    -0.517542367
 C       -2.251470070     5.691347829    -0.006215675
 C       -1.631967906     6.786811575     0.464969105
 C       -2.196537044     8.131606158     0.446640376
 C       -3.462636256     8.409038945    -0.074884872
 C       -3.964253669     9.710251798    -0.072508730
 C       -3.208280425    10.762124172     0.452789175
 C       -1.939209722    10.487011320     0.980320257
 C       -1.442860343     9.186286981     0.979520100
Si       -3.833040115    12.492044396     0.474930098
 C       -2.562483069    13.539318946    -0.312644456
 C       -2.040636203    14.674366745     0.168925439
 C       -1.019840602    15.452492738    -0.536098967
 C       -0.530518336    16.630804147     0.045658510
 C        0.435310828    17.394010441    -0.590590246
 C        0.951947543    16.991902628    -1.839939576
 C        0.494676402    15.790823414    -2.401516721
 C       -0.448049953    15.018525271    -1.734594717
 N        1.938525054    17.800096664    -2.457783499
 C        1.599235953    19.240939151    -2.519841701
 C        2.493852991    17.284424640    -3.721218850
 C        0.166342810    19.569754259    -2.982978187
 C        0.023602355    19.664166107    -4.514944977
 N       -1.234716962    19.097825124    -5.054158841
 C       -1.250235977    17.669633989    -5.026591307
 C       -0.406265874    17.017662267    -5.944657024
 C       -0.362012610    15.633707294    -5.982780265
 C       -1.160560810    14.862439880    -5.123895390
 C       -2.017532762    15.517692304    -4.236221640
 C       -2.083373948    16.907938170    -4.198786505
 C       -2.435199998    19.748786744    -4.501931301
 C       -1.065707976    13.403992644    -5.215622231
 C       -1.763192800    12.541677450    -4.464184122
Si       -1.602954495    10.723280640    -4.623427302
 C       -1.165078911    10.205461530    -6.332339456
 C       -1.567233479    10.978654847    -7.429087449
 C       -1.238607929    10.591569496    -8.725402379
 C       -0.512780480     9.416480070    -8.960136541
 C       -0.121983707     8.640791506    -7.865165846
 C       -0.447304342     9.027642902    -6.565682067
 C       -0.192646318     9.053233579   -10.336558298
 C        0.497309236     7.958624620   -10.699267171
 C        0.816467290     7.597077482   -12.076435053
 C        0.424802249     8.373994979   -13.169708394
 C        0.751270663     7.991255007   -14.470577677
 C        1.472378843     6.816699552   -14.706622166
 C        1.865264466     6.034633964   -13.611911016
 C        1.542363280     6.422116529   -12.314402123
Si        1.911152179     6.297592671   -16.417294105
 C        0.982264858     7.289891507   -17.695033559
 C        3.778339376     6.541432533   -16.696558980
 C        1.507737685     4.446372952   -16.600268901
 C       -0.191070360    10.187704040    -3.458109220
 C       -3.199067862     9.881585682    -4.039602735
 C       -5.443184913    12.680587092    -0.524368906
 C       -4.191644058    13.016333012     2.266155702
 C       -0.648001623    -0.919975714    -1.535796734
 C       -0.631504133    -0.906078643     1.549748681
 H        1.080177852     2.614371731     0.954900305
 H        0.187575048     4.871716910     0.949859847
 H       -3.429916685     3.483146295    -0.924134652
 H       -2.576101835     1.206469508    -0.939606151
 H       -3.251726112     5.760975745    -0.443552264
 H       -0.631967601     6.715837228     0.902770157
 H       -4.069690522     7.607650681    -0.491421773
 H       -4.962368179     9.863978261    -0.491723068
 H       -1.300953103    11.273474081     1.397283170
 H       -0.456726374     8.989293502     1.395627995
 H       -2.235928385    13.138245897    -1.289819235
 H       -2.339652548    15.111081163     1.128703500
 H       -0.920904319    16.960820802     1.007839538
 H        0.808006320    18.298882459    -0.118594306
 H        0.866024245    15.444391024    -3.363758113
 H       -0.755958823    14.069038063    -2.181563014
 H        3.304264848    17.948909092    -4.063040056
 H        1.752060927    17.185334891    -4.531903461
 H        2.947858298    16.293599950    -3.535668149
 H       -2.391829287    20.825254169    -4.742013981
 H       -2.558828264    19.640999522    -3.413492046
 H       -3.330317432    19.337378470    -5.001258901
 H        0.196842604    17.609859405    -6.629843079
 H        0.295470595    15.139527134    -6.698684572
 H       -2.658341656    14.941695568    -3.566082505
 H       -2.759473174    17.389869208    -3.498230317
 H       -0.350146321    13.073105052    -5.983295429
 H       -2.470322297    12.886800229    -3.695133151
 H       -2.145008231    11.901136022    -7.307644205
 H       -1.554684242    11.208795895    -9.564271388
 H        0.440335788     7.721868744    -8.019936454
 H       -0.117126289     8.377229645    -5.750334210
 H       -0.562611346     9.753154645   -11.091655888
 H        0.866681825     7.258051436    -9.944679977
 H       -0.141337301     9.290470758   -13.013530196
 H        0.417817003     8.640386069   -15.284895993
 H        2.429110939     5.105736995   -13.735757919
 H        1.856798189     5.802035479   -11.477036094
 H        1.755131487    19.647488234    -1.491829778
 H        2.343264687    19.758422857    -3.162382140
 H       -0.534941776    18.804897197    -2.587716135
 H       -0.158103508    20.518793001    -2.519126481
 H        0.069018597    20.727442448    -4.840235575
 H        0.873760004    19.153389730    -5.018418493
 H        2.263470529    -1.028635965    -0.059485928
 H        2.277405044     0.463796578     0.912977985
 H        2.258536315     0.559669521    -0.868344661
 H        1.221332482     6.946013196   -18.717187565
 H        1.231380544     8.364059035   -17.638927819
 H       -0.109729233     7.188751558   -17.558209015
 H        3.962212268     6.269347083   -17.776090601
 C        4.219181154     8.002353108   -16.490763819
 C        4.659017523     5.632832818   -15.820305941
 H        2.137379225     3.915162308   -15.828370059
 C        0.030990463     4.132629332   -16.299311836
 C        1.871208461     3.872119739   -17.981113243
 H       -0.145431262     9.062465744    -3.525491957
 C        1.172246873    10.752875540    -3.894798692
 C       -0.439411918    10.565056255    -1.990938472
 H       -3.369021815    10.245041311    -2.981730379
 C       -4.420097392    10.276763709    -4.888187866
 C       -3.092614240     8.347306631    -3.993448818
 H       -6.160382467    11.918011515    -0.104497914
 C       -6.083358651    14.072351819    -0.364831890
 C       -5.264034835    12.397594813    -2.026061714
 H       -4.492380425    14.103145634     2.212934119
 C       -5.354225408    12.229727347     2.898251602
 C       -2.965586335    12.909436478     3.190780348
 H       -1.773172622    -0.923289137    -1.444358827
 C       -0.282958568    -0.205636755    -2.849735726
 C       -0.180294937    -2.384231524    -1.616210935
 H       -0.165792673    -1.933172874     1.517478517
 C       -0.189827064    -0.222557427     2.856702664
 C       -2.161316436    -1.075100714     1.572867423
 H        3.696678975     8.712072485   -17.144940824
 H        5.290039750     8.108231511   -16.716141586
 H        4.087610133     8.346153549   -15.454604964
 H        4.463950083     4.563079503   -15.967267229
 H        4.561060794     5.850342614   -14.747371753
 H        5.719561748     5.787293651   -16.067345984
 H       -0.288525539     4.465630493   -15.301322328
 H       -0.137412462     3.046694114   -16.328765999
 H       -0.659319562     4.572335436   -17.031268299
 H        2.931318022     3.994951359   -18.237891754
 H        1.277136860     4.307080124   -18.795721763
 H        1.673781473     2.790412470   -18.001302265
 H        1.456122601    10.468838031    -4.916962701
 H        1.965581702    10.368909768    -3.238087070
 H        1.221208685    11.849488900    -3.828680531
 H       -1.372058355    10.144954934    -1.585714921
 H       -0.456092825    11.650083526    -1.819504302
 H        0.365922368    10.167895466    -1.356397848
 H       -4.602516551    11.359676552    -4.913795767
 H       -5.330656184     9.817964174    -4.477798312
 H       -4.347042380     9.929351564    -5.928560794
 H       -2.315110888     7.987746336    -3.305102111
 H       -2.903598633     7.897614389    -4.977848257
 H       -4.037713651     7.914615553    -3.635439712
 H       -6.345107372    14.317364314     0.672142379
 H       -7.022652100    14.122068440    -0.933980248
 H       -5.447574223    14.882927782    -0.749345754
 H       -4.856414213    11.399238587    -2.238829999
 H       -4.619735157    13.135249429    -2.525563803
 H       -6.236285960    12.443964119    -2.536907054
 H       -6.300743810    12.333988345     2.352582827
 H       -5.546450136    12.595959032     3.917250704
 H       -5.142038328    11.155432486     2.995196953
 H       -2.087510934    13.457375508     2.822969991
 H       -2.658703259    11.869045000     3.369739835
 H       -3.201365942    13.332256243     4.177798200
 H       -0.630591665     0.836509648    -2.889495146
 H       -0.752149460    -0.718789827    -3.701227043
 H        0.796912776    -0.200809796    -3.049388428
 H       -0.467628373    -2.981503381    -0.741253259
 H        0.905877582    -2.480750470    -1.745206862
 H       -0.637375330    -2.876469674    -2.487023262
 H        0.899613649    -0.135528254     2.957119228
 H       -0.531697257    -0.808629799     3.721969369
 H       -0.618044178     0.782831793     2.978550969
 H       -2.548937949    -1.647711856     0.720745991
 H       -2.697108473    -0.115713058     1.605200293
 H       -2.465128086    -1.625678603     2.475095837

