187   

Si        0.000000000     0.000000000     0.000000000
 C        1.865589153     0.000000000     0.000000000
 C       -0.679377258     1.710808741     0.000000000
 C        0.153362457     2.821933769     0.164653448
 C       -0.376434791     4.112325635     0.162408325
 C       -1.748838564     4.320960516     0.004253555
 C       -2.582460321     3.206240809    -0.158945505
 C       -2.056009080     1.917699748    -0.163629561
 C       -2.347587020     5.651614800    -0.004489893
 C       -1.663334684     6.799872011     0.135233425
 C       -2.262640640     8.130277600     0.126409523
 C       -3.635750314     8.336890883    -0.031930077
 C       -4.166701733     9.626294550    -0.034364768
 C       -3.334784788    10.738190960     0.131338440
 C       -1.957742340    10.534090711     0.289727493
 C       -1.429480153     9.246085219     0.281918654
Si       -4.015150821    12.445210694     0.131049208
 C       -3.039257281    13.581343767     1.180969135
 C       -2.365821668    13.193361625     2.272498204
 C       -1.581098284    14.090833305     3.121788959
 C       -0.922225569    13.555603982     4.238451737
 C       -0.166301338    14.359706525     5.075498059
 C       -0.096554197    15.750254944     4.851844799
 C       -0.753134472    16.288381611     3.733036614
 C       -1.456478301    15.459014661     2.867134707
 N        0.687212229    16.535040974     5.730906086
 C        0.433477590    16.337753055     7.173315108
 C        0.832644810    17.957453034     5.375776334
 C       -0.951850067    16.808310133     7.657493927
 C       -1.935889175    15.633941323     7.838195754
 N       -3.364074300    16.008640680     7.719867325
 C       -3.696361046    16.373865884     6.375552535
 C       -3.851413432    15.314109129     5.465310349
 C       -4.172895775    15.582374847     4.145136062
 C       -4.394103758    16.898456671     3.710472877
 C       -4.260372386    17.942412090     4.627443241
 C       -3.913777581    17.689129570     5.951726287
 C       -3.789033015    16.974336673     8.748354898
 C       -4.730866863    17.119182572     2.302305173
 C       -4.964172388    18.323770365     1.767056351
Si       -5.386917906    18.648462202     0.019288424
 C       -4.287222914    19.971722512    -0.631515868
 C       -3.036547463    20.193023304    -0.040595911
 C       -2.196502774    21.191950874    -0.525402194
 C       -2.577199615    21.981227336    -1.618784739
 C       -3.822619089    21.751337669    -2.210375675
 C       -4.670041402    20.756900246    -1.723229273
 C       -1.662319756    23.015738917    -2.090316785
 C       -1.908558955    23.842733145    -3.120525897
 C       -0.994529793    24.877470546    -3.592862786
 C        0.250970254    25.109861734    -3.003836500
 C        1.093493055    26.110520709    -3.488284369
 C        0.704859994    26.905050888    -4.571321717
 C       -0.544231349    26.674105531    -5.163683868
 C       -1.380818849    25.671706375    -4.681048059
Si        1.804236664    28.229961603    -5.223417549
 C        3.223881463    28.577019421    -4.064104750
 C        2.509666738    27.697215348    -6.909216984
 C        0.758183370    29.800463758    -5.473552062
 C       -5.042012852    17.095339828    -1.029843571
 C       -7.216828370    19.124767385    -0.119190421
 C       -4.034221938    13.117944060    -1.645704866
 C       -5.801272017    12.432762275     0.793570882
 C       -0.662705428    -0.894203885    -1.543896241
 C       -0.598521013    -0.932526687     1.548123582
 H        1.234399902     2.721911402     0.295430874
 H        0.294129329     4.960557333     0.288103820
 H       -3.654289591     3.346614986    -0.285334837
 H       -2.754744363     1.087425320    -0.300430041
 H       -3.433430523     5.663460366    -0.137028963
 H       -0.577380880     6.788197440     0.267407626
 H       -4.305074760     7.487776164    -0.156573327
 H       -5.247664619     9.723848942    -0.166281454
 H       -1.258878676    11.367955016     0.418569197
 H       -0.356473331     9.107335226     0.401845176
 H       -3.046478945    14.633000161     0.854578370
 H       -2.348326881    12.149722286     2.618815454
 H       -0.991847718    12.487092682     4.445792367
 H        0.377032131    13.916562471     5.905775522
 H       -0.729714219    17.355031239     3.531178615
 H       -1.943379835    15.900702071     1.995192839
 H        1.554993140    18.431180283     6.062221271
 H       -0.108043984    18.530032001     5.411993291
 H        1.257656319    18.034661483     4.358547327
 H       -3.665246259    16.503107778     9.738935242
 H       -4.864589380    17.188657386     8.619325059
 H       -3.238508578    17.926372512     8.745422553
 H       -3.705294225    14.289316293     5.803940784
 H       -4.269541591    14.752633108     3.439848048
 H       -4.424860898    18.972738707     4.311638805
 H       -3.809373501    18.517531018     6.645310174
 H       -4.765271695    16.189421978     1.717085941
 H       -4.927421132    19.237061772     2.384001268
 H       -2.685089990    19.602390838     0.812493104
 H       -1.231249403    21.356479690    -0.050310609
 H       -4.142176697    22.350621388    -3.060924291
 H       -5.632895692    20.625147171    -2.224067820
 H       -0.722902662    23.083765957    -1.533942353
 H       -2.848120614    23.774291225    -3.676711980
 H        0.575829122    24.507391733    -2.157579697
 H        2.055889141    26.244593773    -2.986660596
 H       -0.901218552    27.264377212    -6.012440540
 H       -2.346524404    25.506530474    -5.154984573
 H        0.590481817    15.262844748     7.414202184
 H        1.232951572    16.883126823     7.725974959
 H       -0.850950230    17.362470699     8.606764630
 H       -1.373536992    17.534984283     6.934417844
 H       -1.733967464    14.844583991     7.075639737
 H       -1.793442758    15.157002243     8.831527892
 H        2.263308408    -1.030270704    -0.026381884
 H        2.273648192     0.491110138     0.900861574
 H        2.263074351     0.530925741    -0.883950309
 H        3.856836872    29.398540416    -4.444709165
 H        3.871000990    27.691978282    -3.933677197
 H        2.856362492    28.876934013    -3.065955411
 H        3.218734759    28.519753892    -7.215864470
 C        3.309467351    26.384177500    -6.824945777
 C        1.442845843    27.554103014    -8.009279026
 H       -0.044035895    29.521989027    -6.217423131
 C        0.061139000    30.256707655    -4.179008571
 C        1.553235913    30.981308288    -6.058439923
 H       -5.524370760    16.231544896    -0.487042531
 C       -5.641225677    17.159033429    -2.444617814
 C       -3.531030390    16.819938754    -1.140806215
 H       -7.415907752    19.288880201    -1.218020633
 C       -8.163359915    18.015632992     0.374482378
 C       -7.543667694    20.433241220     0.622338910
 H       -4.479297898    14.154870282    -1.582587278
 C       -2.619746069    13.236369735    -2.239876401
 C       -4.909146282    12.285733243    -2.598417637
 H       -6.376762155    11.739637402     0.115019563
 C       -5.882862284    11.878136116     2.227068382
 C       -6.486799434    13.809792784     0.753696442
 H       -1.787576055    -0.880379902    -1.448591537
 C       -0.292995434    -0.167890354    -2.849921877
 C       -0.215293699    -2.363338551    -1.642881976
 H       -0.076900210    -1.932865057     1.517960203
 C       -0.195819758    -0.223334606     2.854278106
 C       -2.115656787    -1.189613929     1.575622808
 H        4.148888659    26.428703746    -6.119155025
 H        3.745343788    26.144980055    -7.805593332
 H        2.686584143    25.521730503    -6.547012906
 H        0.876083858    28.476105619    -8.190250707
 H        0.723044553    26.749475486    -7.803176817
 H        1.922065043    27.297042956    -8.965319277
 H       -0.572554566    29.478433226    -3.730065515
 H       -0.601365631    31.108849314    -4.387600156
 H        0.766005352    30.594730168    -3.407869535
 H        2.023131543    30.753518535    -7.023949290
 H        2.337723521    31.346387358    -5.382339395
 H        0.881537779    31.833550984    -6.237503259
 H       -6.732950325    17.268942738    -2.451360417
 H       -5.423559938    16.227302997    -2.987511635
 H       -5.219272746    17.970709037    -3.053380703
 H       -3.039864718    16.676216372    -0.168499714
 H       -2.987825645    17.617950880    -1.668141341
 H       -3.351183797    15.903397607    -1.721933107
 H       -8.044656224    17.068459872    -0.167467032
 H       -9.209314598    18.322470532     0.231934946
 H       -8.050203345    17.802948379     1.447431842
 H       -6.934911934    21.286280582     0.291179111
 H       -7.430749641    20.347636294     1.712027316
 H       -8.590736265    20.716659319     0.443358550
 H       -1.940316855    13.854524623    -1.636551007
 H       -2.664469652    13.703815116    -3.233836204
 H       -2.135298565    12.259731920    -2.384327921
 H       -5.962729071    12.240025285    -2.294848060
 H       -4.550836935    11.253277502    -2.718917455
 H       -4.898778799    12.730206207    -3.604272021
 H       -5.476917160    10.862044728     2.325841756
 H       -6.931453735    11.820691683     2.551317131
 H       -5.367154055    12.512644059     2.962982939
 H       -6.531903750    14.245166086    -0.252714238
 H       -6.012731209    14.542639578     1.422750869
 H       -7.528948940    13.719961118     1.093572837
 H       -0.632199421     0.877646922    -2.875724467
 H       -0.769856315    -0.665818735    -3.706194746
 H        0.786156243    -0.170814653    -3.052478662
 H       -0.510578727    -2.967342122    -0.775220226
 H        0.869485765    -2.472920489    -1.773159830
 H       -0.678966935    -2.838351372    -2.519729131
 H        0.887189908    -0.076265369     2.955556154
 H       -0.506376500    -0.824691973     3.720696850
 H       -0.676782696     0.758327873     2.972922902
 H       -2.480301737    -1.747390265     0.703916640
 H       -2.703145486    -0.264344738     1.655542939
 H       -2.377250285    -1.793883471     2.456635627

