187   

Si        0.000000000     0.000000000     0.000000000
 C        1.865048883     0.000000000     0.000000000
 C       -0.675855934     1.712698857     0.000000000
 C        0.065950554     2.769968332    -0.537775124
 C       -0.445120525     4.067456422    -0.538209714
 C       -1.709956782     4.337137497    -0.008584569
 C       -2.454683480     3.276083538     0.523050269
 C       -1.947130708     1.979521971     0.524642772
 C       -2.285359155     5.677845749     0.012595153
 C       -1.679509086     6.779022952    -0.463075585
 C       -2.256638597     8.119081461    -0.440988989
 C       -3.521770428     8.385804058     0.089305067
 C       -4.035610493     9.682248521     0.090324747
 C       -3.299987888    10.738166066    -0.456510021
 C       -2.032441230    10.473668380    -0.992520832
 C       -1.516944337     9.180564123    -0.979405976
Si       -3.949393510    12.458031022    -0.470463292
 C       -3.455897452    13.353540998    -1.987445750
 C       -3.247382515    12.759492294    -3.169855812
 C       -2.852313609    13.470435112    -4.387595960
 C       -2.664087405    12.732640762    -5.567177558
 C       -2.290498558    13.356661940    -6.745583917
 C       -2.130318937    14.756443011    -6.784922189
 C       -2.314629864    15.496820874    -5.608849353
 C       -2.650980706    14.851499221    -4.422877249
 N       -1.745468754    15.336444298    -8.024704818
 C       -2.738027022    15.138929357    -9.106630005
 C       -1.262640270    16.727123295    -7.955303027
 C       -4.147984077    15.667158055    -8.784369872
 C       -5.087175835    14.540106534    -8.307204399
 N       -6.178175153    15.007572885    -7.434548328
 C       -7.040485844    15.984639858    -7.961231714
 C       -7.384024117    15.946733846    -9.330522073
 C       -8.232059119    16.900600372    -9.867554227
 C       -8.809263283    17.894368176    -9.063103006
 C       -8.492910685    17.911428059    -7.702344775
 C       -7.630142320    16.972960590    -7.150493598
 C       -5.765282006    15.161884367    -6.030420874
 C       -9.698182213    18.877265505    -9.683603203
 C      -10.305570998    19.869532115    -9.018659126
Si      -11.415759178    21.096556413    -9.795431843
 C      -10.964880470    21.418015341   -11.549905635
 C       -9.622331557    21.363905094   -11.942738790
 C       -9.261242556    21.604497751   -13.267322579
 C      -10.229465832    21.917011675   -14.225852186
 C      -11.571447516    21.979301693   -13.828777529
 C      -11.936066610    21.735308018   -12.506840593
 C       -9.898319241    22.176392942   -15.623051019
 C       -8.655225441    22.148705249   -16.132784956
 C       -8.324098960    22.408095503   -17.530015923
 C       -9.291701083    22.716473443   -18.489561211
 C       -8.930599144    22.957449347   -19.815165031
 C       -7.591447819    22.887695883   -20.211490543
 C       -6.618851191    22.577501101   -19.251092679
 C       -6.981778974    22.343591380   -17.927765269
Si       -7.098224559    23.202916991   -21.956789459
 C       -8.574528236    23.212356901   -23.096919516
 C       -6.224161662    24.889916243   -22.073511889
 C       -5.870392106    21.846539406   -22.482768928
 C      -13.205842908    20.461257935    -9.682262986
 C      -11.284006642    22.725921997    -8.822268441
 C       -5.849403298    12.455098947    -0.370584626
 C       -3.257062183    13.390760145     1.035032567
 C       -0.628548181    -0.905468595    -1.551605054
 C       -0.645698750    -0.925393866     1.533593289
 H        1.061321192     2.621001364    -0.965577631
 H        0.153885699     4.873261324    -0.958538393
 H       -3.442633948     3.463859069     0.939361273
 H       -2.575532200     1.192539427     0.950719153
 H       -3.282913033     5.740113542     0.457567455
 H       -0.682041551     6.717740335    -0.907988239
 H       -4.117934808     7.579175425     0.511863404
 H       -5.026960284     9.829628509     0.527409207
 H       -1.413141177    11.262172243    -1.433470180
 H       -0.528933375     8.994415736    -1.396514023
 H       -3.354533321    14.442652762    -1.866910111
 H       -3.349457006    11.674504798    -3.316108322
 H       -2.800995309    11.650365698    -5.553913165
 H       -2.106343797    12.769915094    -7.643165076
 H       -2.196328250    16.576235091    -5.608664095
 H       -2.770584528    15.443622527    -3.514668745
 H       -0.800754058    16.987442665    -8.924208948
 H       -0.468807926    16.803001898    -7.191671957
 H       -2.043970482    17.470351615    -7.732655483
 H       -5.114574072    14.317222679    -5.734370226
 H       -6.657416843    15.119517409    -5.380568014
 H       -5.213137593    16.094211261    -5.831405214
 H       -6.981347703    15.168405384    -9.972084552
 H       -8.465440584    16.867247155   -10.932649150
 H       -8.928325558    18.672734974    -7.053641316
 H       -7.409360951    17.024611706    -6.089293715
 H       -9.818670969    18.727599571   -10.766236128
 H      -10.178017049    19.991258883    -7.932644868
 H       -8.820142989    21.127924057   -11.234947516
 H       -8.211487790    21.549786006   -13.549437281
 H      -12.340786200    22.221528220   -14.559229644
 H      -12.998412907    21.799162296   -12.256438074
 H      -10.756551322    22.404930525   -16.261774714
 H       -7.796873050    21.920371032   -15.494194818
 H      -10.341618598    22.772756163   -18.207936219
 H       -9.732170262    23.195477268   -20.519814063
 H       -5.556856246    22.508735723   -19.503122051
 H       -6.212118676    22.106145803   -17.195856871
 H       -2.343924208    15.633335083   -10.022743049
 H       -2.767677876    14.051886953    -9.344094076
 H       -4.091544619    16.459454070    -8.013295500
 H       -4.584714112    16.165191342    -9.669784273
 H       -5.535733494    14.013362830    -9.179329004
 H       -4.513853917    13.761345619    -7.751634196
 H        2.262946576    -1.028657969     0.061833826
 H        2.259187525     0.561799397     0.866656540
 H        2.277020213     0.461528022    -0.914245300
 H       -8.265785675    23.362070915   -24.146957448
 H       -9.284406425    24.018381772   -22.841146450
 H       -9.120501780    22.252812778   -23.045587484
 H       -6.007441321    25.045209291   -23.169927347
 C       -7.116622346    26.049641000   -21.594394509
 C       -4.888776277    24.948481313   -21.310534140
 H       -4.990604241    21.936959251   -21.781191746
 C       -6.453949884    20.430732755   -22.325173493
 C       -5.346367485    22.016045148   -23.919840434
 H      -13.854977091    21.272852972   -10.120926762
 C      -13.421946128    19.177357182   -10.503223118
 C      -13.669854497    20.212257739    -8.236003277
 H      -11.577854969    22.480137623    -7.761223349
 C       -9.847612972    23.279331540    -8.804436515
 C      -12.234581083    23.818700207    -9.341269882
 H       -6.111261126    11.925040460     0.590281641
 C       -6.456079153    13.868584382    -0.313476605
 C       -6.494313647    11.684360661    -1.536394770
 H       -3.690962544    14.430941790     0.985604955
 C       -3.673442101    12.762125850     2.376112187
 C       -1.723089036    13.510281482     0.992852770
 H       -0.158257763    -1.930503463    -1.522001616
 C       -2.157605992    -1.081131043    -1.574132616
 C       -0.190736889    -0.216763183    -2.857110621
 H       -1.770964810    -0.928791263     1.443551699
 C       -0.177419996    -2.389816036     1.607992786
 C       -0.278442006    -0.215391637     2.849222665
 H       -8.060650453    26.131529877   -22.148283595
 H       -6.595639479    27.007948347   -21.732422229
 H       -7.363106649    25.985123484   -20.524733476
 H       -4.162541542    24.196189321   -21.643224935
 H       -5.014001079    24.840166925   -20.223912583
 H       -4.409882652    25.926158772   -21.466860657
 H       -6.801471905    20.215914620   -21.304415374
 H       -5.685465587    19.678220702   -22.552268857
 H       -7.291086727    20.233038787   -23.007677556
 H       -4.847782039    22.979078649   -24.089919357
 H       -6.133066107    21.908083003   -24.678226399
 H       -4.599011509    21.240086486   -24.140755154
 H      -13.166411753    19.289419210   -11.566003391
 H      -14.479612811    18.880930881   -10.470181273
 H      -12.849529769    18.321789822   -10.115482235
 H      -13.619165455    21.106183529    -7.601597094
 H      -13.102448157    19.413636538    -7.737392884
 H      -14.721359810    19.890952254    -8.228976294
 H       -9.113191183    22.572954557    -8.393842981
 H       -9.797248085    24.178255286    -8.174027787
 H       -9.495085179    23.583014551    -9.800720005
 H      -13.293216313    23.533127474    -9.294981681
 H      -12.014564313    24.121943062   -10.374964586
 H      -12.134880265    24.726508095    -8.728810943
 H       -6.103030351    14.460741347     0.540332750
 H       -7.548909504    13.803531070    -0.208392187
 H       -6.270223885    14.450734379    -1.226930452
 H       -6.154668622    10.642180627    -1.613345571
 H       -6.319616189    12.160663890    -2.512422415
 H       -7.584754061    11.642676293    -1.404463846
 H       -4.760566578    12.727832560     2.522834330
 H       -3.270028059    13.353941677     3.210706975
 H       -3.285526909    11.741937716     2.510058410
 H       -1.347495876    14.000391769     0.084395929
 H       -1.216798910    12.537841710     1.079499411
 H       -1.368637231    14.116240660     1.838909395
 H       -2.541909053    -1.659107915    -0.724105297
 H       -2.459913327    -1.629023799    -2.478448611
 H       -2.697600278    -0.123932869    -1.601824547
 H        0.898306956    -0.125431346    -2.958126387
 H       -0.622826926     0.787373154    -2.975668865
 H       -0.531041237    -0.801447131    -3.723842872
 H       -0.465565847    -2.983604595     0.730915690
 H       -0.633252819    -2.885783194     2.477293781
 H        0.908972468    -2.486366996     1.735209309
 H       -0.625576247     0.826811877     2.892850884
 H        0.801848457    -0.211520106     3.046996620
 H       -0.746307591    -0.731127755     3.699841751

