187   

Si        0.000000000     0.000000000     0.000000000
 C        1.865148642     0.000000000     0.000000000
 C       -0.682981145     1.709357411     0.000000000
 C        0.114265301     2.807681976    -0.336981251
 C       -0.416798784     4.097621713    -0.332711190
 C       -1.755388048     4.317828777     0.001380361
 C       -2.554255539     3.215520137     0.334403571
 C       -2.026871789     1.927460464     0.332902175
 C       -2.355923259     5.647249082     0.019997121
 C       -1.708694392     6.787561463    -0.274532589
 C       -2.319074571     8.112984725    -0.252859567
 C       -1.533997665     9.225544398    -0.581252636
 C       -2.076233488    10.508920042    -0.573298069
 C       -3.416264814    10.710143588    -0.223878605
 C       -4.202788274     9.599533219     0.105667315
 C       -3.660221636     8.316298044     0.085916408
Si       -4.174156937    12.386388252    -0.199710316
 C       -5.417327654    12.524034533     1.136044723
 C       -5.347097098    11.837765201     2.284620273
 C       -6.328963388    11.931845842     3.366010000
 C       -6.134170976    11.155130838     4.519034652
 C       -7.030688302    11.204421415     5.572474380
 C       -8.190715693    12.003230111     5.483665747
 C       -8.389023936    12.778853838     4.330051034
 C       -7.454839555    12.754266280     3.299412251
 N       -9.077783324    12.022066198     6.585131297
 C       -9.486421703    10.700407458     7.100558550
 C      -10.198389861    12.973482405     6.509827809
 C      -10.416375816     9.886867527     6.183576197
 C       -9.701637724     9.417895474     4.902002294
 N      -10.461493579     8.411519550     4.143690734
 C      -10.677635045     7.167137814     4.759067176
 C       -9.693094935     6.630880797     5.618212646
 C       -9.889778572     5.405961544     6.232825255
 C      -11.040827004     4.644346360     5.982727849
 C      -11.999837030     5.161878537     5.108617164
 C      -11.827340035     6.397733524     4.497903109
 C      -11.576195908     8.992078819     3.379121124
 C      -11.196131050     3.356788774     6.660381594
 C      -12.248805323     2.542820015     6.502177143
Si      -12.435644795     0.935213320     7.352619924
 C      -11.603496813     0.929729606     8.993453505
 C      -11.570602892     2.102746093     9.756988172
 C      -10.945414761     2.120150225    11.002555083
 C      -10.350993856     0.965302380    11.519383922
 C      -10.392284135    -0.209396682    10.757441664
 C      -11.012214636    -0.229011841     9.510265826
 C       -9.685832754     0.936944277    12.817880729
 C       -9.576586808     1.991036429    13.644312235
 C       -8.911719662     1.963792662    14.942873294
 C       -8.312968311     0.811913178    15.459409703
 C       -7.687818850     0.830784054    16.706162003
 C       -7.642638702     2.006625479    17.461697476
 C       -8.242294708     3.163522528    16.945541873
 C       -8.870604529     3.140096095    15.703623957
Si       -6.821474982     2.048107162    19.108824624
 C       -5.778080496     0.528233311    19.393419242
 C       -5.741373838     3.612994797    19.199062642
 C       -8.145123005     2.146703872    20.473291259
 C      -14.291181346     0.601413045     7.606335678
 C      -11.715925578    -0.433853834     6.244699170
 C       -2.839145154    13.716647732     0.053837783
 C       -5.039628881    12.695273127    -1.864709281
 C       -0.616909251    -0.920362908    -1.547868066
 C       -0.652554698    -0.908726552     1.540458725
 H        1.168050195     2.697753911    -0.606955050
 H        0.225355911     4.936243170    -0.595260857
 H       -3.599974781     3.365227838     0.597609465
 H       -2.698323690     1.106961921     0.601640239
 H       -3.413841333     5.665595187     0.300397348
 H       -0.652054654     6.773090635    -0.555289159
 H       -0.488090513     9.089137418    -0.848790452
 H       -1.417033839    11.337609034    -0.844773925
 H       -5.258040866     9.696515089     0.384894965
 H       -4.294083868     7.468907849     0.342244551
 H       -6.233995409    13.233767618     0.940038820
 H       -4.533830822    11.129601811     2.502870972
 H       -5.256148969    10.511372713     4.593513782
 H       -6.835521824    10.630977152     6.475660974
 H       -9.267612491    13.406953893     4.226373105
 H       -7.622465492    13.377328666     2.420128595
 H      -10.736026777    12.977382268     7.473838106
 H      -10.922333666    12.754536503     5.709354352
 H       -9.799368864    13.993235906     6.361667867
 H      -11.254905119     9.940491609     2.914654802
 H      -12.472008152     9.189211884     3.989154242
 H      -11.845944898     8.309659420     2.552276091
 H       -8.774393834     7.180015546     5.806370220
 H       -9.126643918     5.021477067     6.911282989
 H      -12.904384075     4.590501945     4.895526070
 H      -12.599077709     6.762372989     3.828527147
 H      -10.356817006     3.117697186     7.329541400
 H      -13.071516557     2.798852560     5.818243170
 H      -12.023387674     3.036203252     9.405430945
 H      -10.927029959     3.046366512    11.573891594
 H       -9.935989048    -1.119509549    11.141795474
 H      -11.012925492    -1.174867713     8.962026537
 H       -9.262093362    -0.033016933    13.093890033
 H      -10.001113602     2.960700917    13.368123855
 H       -8.330453860    -0.115177792    14.889446544
 H       -7.237892485    -0.101859095    17.057708168
 H       -8.237939090     4.111364742    17.491229237
 H       -9.332612843     4.047959564    15.320556728
 H       -8.570206570    10.111003847     7.332671074
 H       -9.989162926    10.868686252     8.082010107
 H      -10.788593086     9.003891953     6.742615858
 H      -11.314878358    10.472886054     5.923088467
 H       -9.502082412    10.283005261     4.226691717
 H       -8.696033975     9.001407117     5.141722163
 H        2.262737751    -1.029167972     0.055061585
 H        2.260897746     0.555640632     0.869640700
 H        2.275368091     0.466428350    -0.912692633
 H       -5.251528260     0.582778504    20.363025543
 H       -5.010905595     0.421491745    18.605032472
 H       -6.387693453    -0.392216934    19.397649630
 H       -6.447601986     4.484092707    19.069327600
 C       -5.022755953     3.786447875    20.548944485
 C       -4.702010155     3.677047530    18.065263613
 H       -7.579534958     2.116417910    21.449195168
 C       -8.969256969     3.446280236    20.441107906
 C       -9.112400902     0.949186025    20.443624764
 H      -14.752287194     0.605048158     6.576761863
 C      -14.576486827    -0.764952315     8.253566243
 C      -14.973458317     1.701758924     8.439021533
 H      -11.894974635    -1.405142273     6.789884748
 C      -12.404133703    -0.527338058     4.871201404
 C      -10.199540612    -0.275280537     6.032539234
 H       -2.122925294    13.609034944    -0.811440837
 C       -3.398401420    15.150438217     0.030645441
 C       -2.049494758    13.510728775     1.359024748
 H       -5.476305529    13.733539539    -1.801713060
 C       -4.075979247    12.653199487    -3.063361542
 C       -6.192401061    11.706272304    -2.114727718
 H       -0.127466303    -1.936366724    -1.514386007
 C       -2.142076666    -1.126426705    -1.572578490
 C       -0.191398005    -0.227983821    -2.855593149
 H       -1.777160978    -0.917083685     1.442264261
 C       -0.178263494    -2.369604264     1.638402457
 C       -0.299880841    -0.178031328     2.848785238
 H       -5.708682141     3.822503515    21.405135668
 H       -4.468381624     4.736264553    20.559450651
 H       -4.283792499     2.998279513    20.745141318
 H       -5.149340362     3.616404258    17.062748515
 H       -3.940684351     2.888890903    18.135611049
 H       -4.161406019     4.633567892    18.102640088
 H       -8.358506377     4.352990705    20.535530976
 H       -9.675171234     3.463625144    21.284355342
 H       -9.578450683     3.542189941    19.531260229
 H       -8.609648524    -0.020767517    20.549152975
 H       -9.718035124     0.912042389    19.526625131
 H       -9.823911738     1.018543231    21.278961571
 H      -14.201626102    -1.612429042     7.665682180
 H      -15.661294524    -0.915803814     8.351615479
 H      -14.162962083    -0.852607224     9.268559098
 H      -14.862704629     2.706349753     8.008500754
 H      -14.607019392     1.742121658     9.474982167
 H      -16.053994535     1.510957822     8.503248269
 H      -13.482719372    -0.718601017     4.935718361
 H      -11.979213689    -1.361532039     4.294481302
 H      -12.258775079     0.373651206     4.258600987
 H       -9.626232440    -0.255374109     6.969732389
 H       -9.940598405     0.633132853     5.468924823
 H       -9.808843898    -1.121295995     5.450128620
 H       -3.908981084    15.404378050    -0.906908543
 H       -2.578095342    15.874942390     0.138237996
 H       -4.094192495    15.351234324     0.857296311
 H       -1.571440110    12.523868743     1.430490395
 H       -2.669603630    13.641795257     2.257829108
 H       -1.240349323    14.250903448     1.432067195
 H       -3.271572158    13.397296521    -3.002820296
 H       -4.622420326    12.867296038    -3.993300039
 H       -3.609874256    11.667135277    -3.203205770
 H       -6.957101823    11.718356914    -1.326282563
 H       -5.847413211    10.668002844    -2.226639044
 H       -6.710161387    11.959390197    -3.050690508
 H       -2.519101003    -1.695357994    -0.713339232
 H       -2.429225561    -1.697613758    -2.467418622
 H       -2.699819019    -0.180455584    -1.622349855
 H        0.895603955    -0.114593082    -2.956053885
 H       -0.642818809     0.767195732    -2.977907539
 H       -0.519158088    -0.822342355    -3.720497436
 H       -0.454811252    -2.976174200     0.766435071
 H       -0.640271941    -2.856257926     2.509753567
 H        0.907261203    -2.459039646     1.777483323
 H       -0.658460489     0.861038929     2.875513943
 H        0.778652923    -0.160816850     3.053955893
 H       -0.769210091    -0.686541856     3.703020627

