187   

Si        0.000000000     0.000000000     0.000000000
 C        1.866505507     0.000000000     0.000000000
 C       -0.651230561     1.723402494     0.000000000
 C        0.042290749     2.703965709    -0.719555972
 C       -0.415858199     4.018956101    -0.745762315
 C       -1.600848797     4.383006393    -0.096848178
 C       -2.297786743     3.399251388     0.614402711
 C       -1.821928032     2.089882470     0.673871799
 C       -2.098701916     5.757648908    -0.112510213
 C       -1.462252797     6.758850720    -0.743438219
 C       -1.878800729     8.153792289    -0.814308344
 C       -1.055834328     9.034305973    -1.532417480
 C       -1.382035087    10.380131960    -1.647722414
 C       -2.547721687    10.881903684    -1.050530030
 C       -3.372133788    10.006843906    -0.338278885
 C       -3.040472757     8.654096993    -0.222996474
Si       -2.906055172    12.673807775    -1.250645764
 C       -4.636496183    13.131216586    -0.874267037
 C       -4.978657184    14.135146151    -0.056260162
 C       -6.352021024    14.528050543     0.266776927
 C       -6.538968939    15.607129511     1.145593322
 C       -7.810805904    16.031767045     1.494224192
 C       -8.936216174    15.367520161     0.975761002
 C       -8.757558903    14.289129584     0.099095938
 C       -7.474813438    13.880937307    -0.253913434
 N      -10.213001298    15.860690159     1.378928401
 C      -10.550213855    15.593149920     2.793396651
 C      -11.303620866    15.564890927     0.436214316
 C      -10.232940875    14.174727988     3.305588538
 C      -11.443883839    13.439011671     3.906853544
 N      -12.311430001    12.732600485     2.938148817
 C      -11.619966197    11.999063367     1.946797079
 C      -10.627012846    11.091851054     2.375200324
 C       -9.917786271    10.346723057     1.450282025
 C      -10.145162895    10.497745199     0.073034404
 C      -11.144485385    11.376974907    -0.345666557
 C      -11.903610973    12.092262917     0.575371946
 C      -13.468972204    13.524480637     2.497737117
 C       -9.363154542     9.680972941    -0.854947872
 C       -9.478880561     9.724602078    -2.189032032
Si       -8.472898139     8.678046214    -3.303795355
 C       -8.056165292     7.097566176    -2.458571858
 C       -9.039631935     6.516742647    -1.644272721
 C       -8.787991833     5.322818011    -0.977782582
 C       -7.551044504     4.677297097    -1.109706069
 C       -6.575127714     5.253261276    -1.926633476
 C       -6.826402250     6.450013800    -2.599776747
 C       -7.349437809     3.428599362    -0.385104541
 C       -6.227206712     2.691312426    -0.410295174
 C       -6.052056445     1.443789006     0.325486638
 C       -7.051725334     0.895845368     1.134837250
 C       -6.839908491    -0.299757639     1.820146764
 C       -5.626311293    -0.985112514     1.695010321
 C       -4.629061253    -0.442054260     0.876744914
 C       -4.839433564     0.756004406     0.200448866
Si       -5.351299523    -2.563352589     2.601823042
 C       -6.924636089    -3.553654836     2.731179506
 C       -4.003386993    -3.571436712     1.711137501
 C       -4.714120800    -2.145134255     4.346173168
 C       -9.455122116     8.323993701    -4.889623219
 C       -6.884076334     9.616620449    -3.759060773
 C       -1.708595969    13.647213401    -0.133633633
 C       -2.574172741    13.165485089    -3.062763073
 C       -0.597597556    -0.911597400    -1.561290093
 C       -0.643894469    -0.915700758     1.539118422
 H        0.962405940     2.483048433    -1.267896943
 H        0.159052792     4.763441973    -1.294105494
 H       -3.220153991     3.656831570     1.134223559
 H       -2.396000251     1.371945287     1.269201184
 H       -3.034298111     5.927366466     0.424709026
 H       -0.524169251     6.554542095    -1.274374997
 H       -0.148501851     8.662797532    -2.004973035
 H       -0.698670318    11.014210392    -2.220774744
 H       -4.294066945    10.347606514     0.143705856
 H       -3.698409299     7.988064838     0.332781040
 H       -5.397681781    12.521389526    -1.386512899
 H       -4.232799721    14.758274420     0.458149050
 H       -5.673390518    16.125125377     1.557624259
 H       -7.949239524    16.878505863     2.162824360
 H       -9.615926694    13.747385797    -0.293945888
 H       -7.355107636    13.035672921    -0.933518831
 H      -12.179267411    16.180462177     0.702487182
 H      -11.603218944    14.506238466     0.407228581
 H      -10.994137069    15.867245154    -0.580727999
 H      -14.151957880    12.883049199     1.912205191
 H      -13.211559095    14.411324113     1.899317567
 H      -14.033342659    13.855491159     3.387570543
 H      -10.431865946    10.969581745     3.437762902
 H       -9.162673109     9.640029941     1.798530095
 H      -11.353809676    11.496742609    -1.409428580
 H      -12.704024468    12.730939861     0.215600563
 H       -8.657490952     9.008770905    -0.343123839
 H      -10.179061037    10.410214913    -2.685940109
 H      -10.024994425     6.975025376    -1.502912138
 H       -9.562293071     4.887795218    -0.348754129
 H       -5.606064200     4.770501497    -2.044585968
 H       -6.027647190     6.853273446    -3.228743395
 H       -8.209243421     3.106724664     0.210957489
 H       -5.363278637     3.004729005    -1.004256780
 H       -8.008406294     1.403470535     1.241207614
 H       -7.656714545    -0.674715840     2.442432846
 H       -3.663697973    -0.937545896     0.737923298
 H       -4.053071134     1.160977702    -0.438253328
 H       -9.975198129    16.338944478     3.392953209
 H      -11.621779354    15.839060275     2.951244121
 H       -9.784735010    13.564354613     2.493032300
 H       -9.432435836    14.231916685     4.068121342
 H      -11.081499039    12.665199426     4.626948617
 H      -12.064985037    14.138735881     4.506054591
 H        2.265233561    -1.024469080     0.104393634
 H        2.261885182     0.597632738     0.841440148
 H        2.278471892     0.423628601    -0.931902851
 H       -6.751233277    -4.514708113     3.247109542
 H       -7.330394871    -3.782799325     1.728701200
 H       -7.706797516    -3.011693564     3.290860668
 H       -3.088757791    -2.907748053     1.678386515
 C       -3.613556070    -4.862341559     2.453090865
 C       -4.383351965    -3.924225561     0.261990148
 H       -4.601592023    -3.133010455     4.878760591
 C       -3.343239970    -1.445888558     4.337415685
 C       -5.704796453    -1.281881378     5.148120770
 H       -9.659892532     9.327490520    -5.362835570
 C       -8.675580118     7.468594774    -5.903800874
 C      -10.808212284     7.648180808    -4.602170282
 H       -6.345215360     8.967550417    -4.508404937
 C       -7.152074425    10.983051413    -4.414863748
 C       -5.959005645     9.819185218    -2.547162563
 H       -2.008684102    14.731021987    -0.228098605
 C       -1.830957983    13.238945013     1.345903549
 C       -0.233272737    13.530196501    -0.555337828
 H       -1.469930055    13.009530463    -3.231709353
 C       -3.335878625    12.282997834    -4.066875302
 C       -2.895493510    14.642652781    -3.348854856
 H       -0.016575117    -1.879035188    -1.582629659
 C       -2.095345392    -1.259981167    -1.561163839
 C       -0.274537649    -0.133470149    -2.850488474
 H       -1.770742331    -0.842435851     1.500061133
 C       -0.271005421    -2.408560584     1.569671531
 C       -0.173743409    -0.255093489     2.847853620
 H       -3.240006594    -4.683119395     3.469583065
 H       -2.804159590    -5.375851197     1.914088580
 H       -4.438534577    -5.583410470     2.523583790
 H       -4.646521558    -3.047985619    -0.347638695
 H       -5.223455673    -4.628925218     0.200620570
 H       -3.536744335    -4.410746295    -0.243029083
 H       -2.550928282    -2.052742467     3.878904367
 H       -3.017815438    -1.242514378     5.367704986
 H       -3.362034301    -0.473087628     3.824191356
 H       -6.688151699    -1.751907232     5.276310757
 H       -5.864090220    -0.289150291     4.702846549
 H       -5.316156483    -1.104916111     6.161361490
 H       -7.737984183     7.932566177    -6.235924514
 H       -9.279393174     7.315283681    -6.809895025
 H       -8.435587934     6.465213639    -5.523386710
 H      -11.451798702     8.228585292    -3.927435288
 H      -10.699646266     6.641031175    -4.174218823
 H      -11.373711969     7.524118758    -5.536589453
 H       -7.760382150    10.919747859    -5.325406086
 H       -6.201190111    11.447072317    -4.716225921
 H       -7.640973249    11.694417514    -3.734115727
 H       -5.685525248     8.886055567    -2.034460499
 H       -6.384899700    10.494643667    -1.791661260
 H       -5.008248647    10.265118508    -2.874280125
 H       -2.849215517    13.334122670     1.747302011
 H       -1.191903498    13.880263615     1.968948898
 H       -1.502364978    12.205714395     1.530269657
 H       -0.041217124    13.883532409    -1.576175532
 H        0.155264405    12.505340935    -0.473111996
 H        0.394969497    14.146766200     0.104253687
 H       -3.110074117    11.212205124    -3.962860810
 H       -3.057099800    12.554875679    -5.094873623
 H       -4.426391015    12.405536694    -4.000667816
 H       -2.320779216    15.341605909    -2.727564957
 H       -3.960973905    14.882098279    -3.218668740
 H       -2.650272205    14.886902164    -4.392166084
 H       -2.384788035    -1.925584322    -0.736535722
 H       -2.357913400    -1.792702990    -2.486966844
 H       -2.742932321    -0.372412323    -1.529531412
 H        0.792902674     0.088374223    -2.973851340
 H       -0.823349020     0.816876354    -2.923033337
 H       -0.566125723    -0.724209013    -3.730723393
 H       -0.628315366    -2.965203398     0.693381960
 H       -0.723781163    -2.892678014     2.447746934
 H        0.810274284    -2.578782492     1.652229286
 H       -0.453011117     0.805513878     2.925468136
 H        0.912046994    -0.320539898     2.996359533
 H       -0.632438949    -0.757196468     3.711997958

