187   

Si        0.000000000     0.000000000     0.000000000
 C        1.865447746     0.000000000     0.000000000
 C       -0.673813617     1.712939252     0.000000000
 C        0.149709998     2.812622315    -0.260830964
 C       -0.372085336     4.105896738    -0.258118217
 C       -1.727716508     4.328938849    -0.002456703
 C       -2.552327945     3.225928543     0.255526671
 C       -2.033605675     1.934042315     0.257508769
 C       -2.314508249     5.664716863     0.009992797
 C       -1.627608317     6.796667305    -0.218220434
 C       -2.199505620     8.138159222    -0.209226982
 C       -3.551054367     8.384966580     0.043727881
 C       -4.051200188     9.687979866     0.041303544
 C       -3.200924713    10.772605142    -0.187683983
 C       -1.841462737    10.527354592    -0.431259762
 C       -1.348912839     9.226810794    -0.444497303
Si       -3.797304807    12.517107955    -0.204051602
 C       -2.838179941    13.431761086    -1.466199637
 C       -2.361054793    12.808826765    -2.552201042
 C       -1.586128755    13.440808974    -3.617436610
 C       -1.165930810    12.629835192    -4.685371354
 C       -0.429605542    13.157276082    -5.728596865
 C       -0.023834902    14.508453209    -5.695976335
 C       -0.433210773    15.318686777    -4.627719325
 C       -1.230555510    14.788304195    -3.615334451
 N        0.730069080    14.988814973    -6.798289848
 C        1.940060353    14.201280319    -7.106433255
 C        0.958759942    16.441410778    -6.849233792
 C        3.166250955    14.439895834    -6.200792060
 C        2.952468103    14.069885218    -4.723327934
 N        2.542980884    12.664078251    -4.480430464
 C        2.252200654    12.368971423    -3.126334511
 C        1.603734496    13.327932329    -2.318549233
 C        1.311726845    13.056240544    -0.992470460
 C        1.583904299    11.800212451    -0.429931770
 C        2.185574256    10.835373691    -1.240291988
 C        2.508440949    11.103489152    -2.566063078
 C        3.378020291    11.673087390    -5.179574664
 C        1.253560180    11.569953382     0.978361578
 C        1.464382239    10.417615480     1.627935889
Si        1.069204798    10.081914618     3.384420828
 C        2.570807368     9.354465846     4.165262831
 C        3.835430467     9.816573258     3.776452184
 C        4.987442980     9.285145559     4.349545384
 C        4.905650267     8.287007761     5.329826534
 C        3.642887417     7.831988385     5.718514070
 C        2.487099987     8.359538005     5.143467111
 C        6.141155957     7.761116958     5.901036170
 C        6.202143610     6.803614337     6.841992026
 C        7.437204247     6.277314772     7.413582038
 C        8.700756447     6.730918641     7.026317195
 C        9.856029599     6.199382881     7.599426378
 C        9.772167657     5.193997222     8.567663234
 C        8.505955042     4.735767535     8.956356915
 C        7.354617983     5.273046105     8.387690025
Si       11.286711711     4.481886748     9.333776360
 C       12.825261213     4.977706073     8.402477598
 C       11.437105958     5.093482259    11.130250184
 C       11.110559146     2.586579060     9.351991797
 C        0.614747917    11.687254590     4.300014169
 C       -0.391613845     8.878807051     3.552908852
 C       -5.653077393    12.596947839    -0.596131739
 C       -3.484772424    13.298002014     1.500402923
 C       -0.612450456    -0.926369308    -1.545788841
 C       -0.657562360    -0.897277773     1.544721165
 H        1.217637019     2.700897260    -0.467939902
 H        0.292060046     4.944892307    -0.459093268
 H       -3.610820762     3.377807303     0.457436475
 H       -2.724491424     1.112948285     0.468203672
 H       -3.385537848     5.695185303     0.226562475
 H       -0.556052218     6.759664623    -0.441894804
 H       -4.229861594     7.557247638     0.236562931
 H       -5.118918260     9.818401263     0.232524166
 H       -1.119638171    11.337448596    -0.608326820
 H       -0.288563030     9.062271282    -0.635385676
 H       -2.691354347    14.504702085    -1.295862963
 H       -2.513760173    11.731155077    -2.730666278
 H       -1.431114208    11.571659432    -4.698069952
 H       -0.145515821    12.525463839    -6.566974991
 H       -0.144748446    16.362678424    -4.578243747
 H       -1.559490896    15.437281051    -2.804104283
 H        1.449340551    16.696146299    -7.803995873
 H        1.574360889    16.834001105    -6.025092412
 H       -0.017940019    16.958552846    -6.839657093
 H        3.489001093    11.947954309    -6.240493081
 H        2.862806007    10.694550659    -5.169256557
 H        4.382564744    11.556149122    -4.742629192
 H        1.314198830    14.290355278    -2.736666677
 H        0.833861257    13.827612453    -0.387091209
 H        2.410231699     9.847944047    -0.834163807
 H        2.974066590    10.319156311    -3.153380210
 H        0.804308606    12.448240471     1.461404445
 H        1.910354851     9.550279771     1.113449550
 H        3.959235061    10.594072729     3.015165430
 H        5.961332501     9.652039133     4.031673618
 H        3.551310939     7.056568233     6.476630918
 H        1.528097538     7.960942325     5.485928296
 H        7.056177282     8.209573160     5.503031757
 H        5.286916820     6.355377357     7.239596659
 H        8.793715935     7.508894141     6.270773124
 H       10.815800863     6.596296205     7.257403651
 H        8.378956174     3.951003690     9.707441914
 H        6.380139649     4.905514046     8.703631440
 H        1.674466209    13.118355437    -7.081106311
 H        2.214979165    14.430754139    -8.162053122
 H        4.029141004    13.885527561    -6.616311877
 H        3.459005453    15.507930305    -6.245788939
 H        3.878560630    14.312324819    -4.153418800
 H        2.140345565    14.727110624    -4.323353100
 H        2.263579983    -1.028724466     0.059042047
 H        2.261597239     0.558959432     0.867460203
 H        2.274744103     0.462863589    -0.914996659
 H       13.725543596     4.518353441     8.848236039
 H       12.972603762     6.071884820     8.408628518
 H       12.773036025     4.649958713     7.348365865
 H       12.411226044     4.673183272    11.514327816
 C       11.508410904     6.628605905    11.225977780
 C       10.307982556     4.594744145    12.049632362
 H       10.193270188     2.367439141     9.972484096
 C       10.877856765     2.003240389     7.946507226
 C       12.303564811     1.864767967    10.003425253
 H       -0.245178109    12.138319063     3.723586151
 C        0.142597465    11.447888879     5.745093517
 C        1.766438402    12.708468901     4.319950592
 H       -0.457072800     8.636454489     4.654523383
 C       -1.740236540     9.482475465     3.129561969
 C       -0.163462224     7.563515928     2.789699699
 H       -6.170597170    12.012197026     0.218445303
 C       -6.216817679    14.029359434    -0.581695195
 C       -5.995244864    11.941697799    -1.946581507
 H       -3.888742105    14.349128619     1.443184668
 C       -4.212371947    12.566137766     2.641786850
 C       -1.984285071    13.377574181     1.834344633
 H       -0.111940566    -1.937157005    -1.512948660
 C       -2.135076590    -1.150383530    -1.569692478
 C       -0.196478043    -0.229987411    -2.854606743
 H       -1.782394062    -0.891616537     1.449801009
 C       -0.200753052    -2.363562635     1.644903586
 C       -0.291785062    -0.167211575     2.849808901
 H       12.340918362     7.063618642    10.658216117
 H       11.656886879     6.934515840    12.271523206
 H       10.583991468     7.120337492    10.890031175
 H       10.239105633     3.500889315    12.102100999
 H        9.320689407     4.982337581    11.761234514
 H       10.482598344     4.940161447    13.079152760
 H       10.001312212     2.431319849     7.439178256
 H       10.695879199     0.921120236     8.012618243
 H       11.740779522     2.131281191     7.279733998
 H       12.491434422     2.180924466    11.037645351
 H       13.238148320     1.989098165     9.440535726
 H       12.111001995     0.782738550    10.043282706
 H       -0.746871909    10.807989385     5.812366991
 H       -0.130742026    12.403298257     6.215190928
 H        0.921193370    11.005888795     6.382468810
 H        2.138345348    12.972055598     3.320693465
 H        2.627772943    12.365211915     4.910885663
 H        1.431325344    13.646720209     4.783370221
 H       -2.017723228    10.379583588     3.695910914
 H       -2.546854986     8.752670854     3.288701001
 H       -1.778281077     9.739291582     2.058760939
 H        0.754060742     7.036563337     3.082791214
 H       -0.136411511     7.705574030     1.699718760
 H       -0.992454351     6.866252401     2.981298823
 H       -6.084996575    14.540588762     0.380177591
 H       -7.299780960    14.008682196    -0.771132072
 H       -5.781481021    14.667150028    -1.363709534
 H       -5.676143984    10.892496443    -2.016962675
 H       -5.558684797    12.476437890    -2.802910277
 H       -7.082807505    11.944146704    -2.103510022
 H       -5.302551388    12.543613850     2.519959063
 H       -4.021888050    13.074395575     3.597851305
 H       -3.870279516    11.528667066     2.771200702
 H       -1.407727068    13.962423357     1.104879831
 H       -1.517945162    12.382903316     1.908403721
 H       -1.838056333    13.864541779     2.808389658
 H       -2.506079074    -1.717311142    -0.706570442
 H       -2.414721215    -1.731419243    -2.460614886
 H       -2.703598676    -0.211482223    -1.627250191
 H        0.888978079    -0.102843087    -2.955868243
 H       -0.660148196     0.759454873    -2.977427648
 H       -0.517279303    -0.829243252    -3.718683257
 H       -0.488075143    -2.968914183     0.775565317
 H       -0.665128242    -2.842245652     2.519317442
 H        0.884212074    -2.465718581     1.779844840
 H       -0.637953782     0.876072959     2.874896563
 H        0.787763441    -0.162035699     3.050943633
 H       -0.763916312    -0.667833643     3.707027886

