187   

Si        0.000000000     0.000000000     0.000000000
 C        1.865353422     0.000000000     0.000000000
 C       -0.647630540     1.724114526     0.000000000
 C       -0.011360353     2.700015032    -0.776638148
 C       -0.482188760     4.011813503    -0.793616425
 C       -1.600986058     4.379232973    -0.040296314
 C       -2.240818948     3.400258762     0.730307082
 C       -1.774068672     2.087889264     0.747238312
 C       -2.127695112     5.739876373    -0.028449920
 C       -1.608005433     6.765753464    -0.723737719
 C       -2.133265857     8.126536825    -0.713044444
 C       -1.491516548     9.102136787    -1.487576911
 C       -1.956621885    10.414516085    -1.509118838
 C       -3.085078942    10.777684632    -0.764705071
 C       -3.725421233     9.806586381     0.013738945
 C       -3.246200156     8.497613423     0.046851890
Si       -3.725930674    12.502252479    -0.770745627
 C       -5.520719497    12.451404359    -0.417571492
 C       -6.152376277    13.190724706     0.502864898
 C       -7.593345860    13.127275667     0.762627351
 C       -8.133919838    13.956547964     1.757003513
 C       -9.491158432    13.936839626     2.043784659
 C      -10.341266262    13.074382356     1.333575072
 C       -9.809944110    12.249730390     0.334284414
 C       -8.449814441    12.285459877     0.048080784
 N      -11.729786069    13.107219897     1.682442451
 C      -12.056229790    12.346632843     2.910822068
 C      -12.629985425    12.818828727     0.552475058
 C      -11.355594148    10.984877832     3.086864537
 C      -12.308380788     9.796592119     3.315907699
 N      -12.832922543     9.137927480     2.095362816
 C      -11.865674277     8.967882370     1.072910433
 C      -10.689121166     8.260111156     1.396522954
 C       -9.707979706     8.061884237     0.439918051
 C       -9.848791093     8.581077971    -0.856130185
 C      -11.028530048     9.254394776    -1.179573315
 C      -12.046473359     9.411871763    -0.245143493
 C      -14.145973918     9.654027452     1.677616419
 C       -8.785877544     8.347067669    -1.836201740
 C       -8.832910345     8.802917412    -3.094010458
Si       -7.566200736     8.567554053    -4.389089221
 C       -7.234410518    10.236096091    -5.093896038
 C       -7.409170251    11.350571058    -4.263091204
 C       -7.172411888    12.636008313    -4.744169240
 C       -6.732321305    12.835574515    -6.056074923
 C       -6.549024867    11.718739996    -6.881447499
 C       -6.799312964    10.431890772    -6.408124543
 C       -6.473942998    14.166604793    -6.594775681
 C       -6.616101277    15.305777884    -5.895941132
 C       -6.362214448    16.643292341    -6.418907609
 C       -5.936284043    16.872952163    -7.729388658
 C       -5.705600348    18.170331290    -8.186905204
 C       -5.885688700    19.266434825    -7.337521748
 C       -6.309527560    19.038105579    -6.021136925
 C       -6.546270216    17.743008315    -5.569687133
Si       -5.585942353    20.985164915    -7.924323079
 C       -4.717937176    21.005644507    -9.575433417
 C       -7.247599189    21.897298360    -8.098701192
 C       -4.534728446    21.883307848    -6.615798426
 C       -5.958301152     7.846779703    -3.685983628
 C       -8.236297845     7.397412548    -5.726081970
 C       -2.780480276    13.536606390     0.510594946
 C       -3.480083945    13.284746809    -2.490744571
 C       -0.639185860    -0.893572714    -1.554292364
 C       -0.645034138    -0.936390658     1.526881899
 H        0.868582628     2.473706743    -1.385836879
 H        0.032939795     4.752227521    -1.402994298
 H       -3.114863807     3.663872501     1.322790572
 H       -2.318313919     1.367540274     1.363996546
 H       -3.007210786     5.884813040     0.605494505
 H       -0.728226598     6.619710984    -1.357351429
 H       -0.619218138     8.833941361    -2.080334169
 H       -1.412548890    11.135501018    -2.125900759
 H       -4.610175064    10.036237643     0.617764830
 H       -3.753578564     7.761770523     0.667758181
 H       -6.072310708    11.738239394    -1.055230007
 H       -5.631803300    13.912359907     1.145229932
 H       -7.482114681    14.628282661     2.314239729
 H       -9.908121386    14.586926013     2.810349847
 H      -10.455196327    11.568399367    -0.218904163
 H       -8.055459772    11.633053717    -0.733283964
 H      -13.653534276    13.117439082     0.835553085
 H      -12.638950870    11.766361995     0.232963239
 H      -12.337348251    13.442038453    -0.311647775
 H      -14.855285848     9.535669004     2.515775648
 H      -14.534410404     9.039838209     0.845734320
 H      -14.143120706    10.710940859     1.371067760
 H      -10.562464056     7.861190433     2.400182116
 H       -8.809175519     7.503484935     0.703531926
 H      -11.174759031     9.647575698    -2.187573984
 H      -12.970094928     9.896088153    -0.547686828
 H       -7.943693396     7.765986499    -1.440397735
 H       -9.702470362     9.379435200    -3.455683337
 H       -7.740108470    11.256695494    -3.222166622
 H       -7.328403640    13.487264761    -4.082319323
 H       -6.208755601    11.854120274    -7.905947352
 H       -6.643659809     9.597751974    -7.096360248
 H       -6.146970048    14.186714949    -7.637596328
 H       -6.943531730    15.279663303    -4.851397231
 H       -5.783725546    16.036358862    -8.408613723
 H       -5.377791964    18.287824444    -9.223391726
 H       -6.465628750    19.856482846    -5.312475365
 H       -6.877825339    17.585553032    -4.544700851
 H      -11.774435847    13.014974569     3.759855844
 H      -13.159105086    12.230087286     2.967872897
 H      -10.695923379    10.775855516     2.218908782
 H      -10.653663020    11.047872386     3.941211286
 H      -11.767528247     9.002954597     3.886881747
 H      -13.161811448    10.101468203     3.957811455
 H        2.264560271    -1.028683004     0.047995979
 H        2.257627468     0.551201567     0.874479295
 H        2.277476271     0.476346037    -0.906393573
 H       -4.502158842    22.039571032    -9.899036218
 H       -5.328109868    20.531180173   -10.363853172
 H       -3.754607407    20.466631054    -9.523560942
 H       -6.994008266    22.912763940    -8.520385405
 C       -8.203138406    21.196911990    -9.082165937
 C       -7.982773406    22.106881547    -6.762892961
 H       -5.146195833    21.871221383    -5.666893066
 C       -3.206986776    21.158896552    -6.328790871
 C       -4.239451469    23.352083408    -6.967733217
 H       -6.246326616     6.894906308    -3.152148436
 C       -4.921361576     7.490196955    -4.766270547
 C       -5.299751242     8.791041618    -2.668889999
 H       -7.419380306     7.311540875    -6.500187481
 C       -8.536914653     5.985046211    -5.194001767
 C       -9.493593591     7.948969218    -6.421995266
 H       -3.276280832    14.550261989     0.522678961
 C       -2.869395794    12.941197732     1.928070524
 C       -1.296476903    13.738594434     0.154572282
 H       -2.374562675    13.490990601    -2.581122262
 C       -3.880751433    12.349565828    -3.643378052
 C       -4.230077901    14.619368770    -2.650555212
 H       -0.192481933    -1.928990871    -1.519581157
 C       -2.171899140    -1.033743247    -1.581779945
 C       -0.181021352    -0.221082549    -2.861214106
 H       -1.771118936    -0.875145366     1.476033109
 C       -0.258107916    -2.426542123     1.540414758
 C       -0.193366866    -0.294337133     2.851436232
 H       -7.786467231    21.085789049   -10.091470457
 H       -9.125859884    21.784232288    -9.193977567
 H       -8.513662646    20.199450401    -8.738929963
 H       -7.396289311    22.669143351    -6.025327809
 H       -8.296995001    21.162432032    -6.296592210
 H       -8.902951800    22.686265374    -6.928128408
 H       -3.342402810    20.114461211    -6.013114297
 H       -2.673195353    21.660477661    -5.508996171
 H       -2.523530024    21.158647168    -7.188176914
 H       -5.145388804    23.954160572    -7.115192755
 H       -3.615898394    23.460668073    -7.865018864
 H       -3.683271569    23.829852568    -6.147971249
 H       -5.276776824     6.740318090    -5.483403876
 H       -4.024354581     7.061424687    -4.293558907
 H       -4.576010317     8.364921744    -5.334438324
 H       -5.940956135     9.043391294    -1.814128428
 H       -4.957821982     9.734757085    -3.118756942
 H       -4.397793709     8.319883136    -2.246416842
 H       -7.661136477     5.489580078    -4.754612415
 H       -8.875888035     5.337422711    -6.015097832
 H       -9.338714934     5.972384396    -4.442095511
 H       -9.346860739     8.944538073    -6.863543912
 H      -10.362243784     8.007640744    -5.751945389
 H       -9.787331874     7.287037214    -7.249042387
 H       -3.899143507    12.801159468     2.283615362
 H       -2.382284454    13.611278782     2.650379055
 H       -2.357323336    11.971937914     2.014906400
 H       -1.143795197    14.265546982    -0.796016609
 H       -0.733660049    12.795499090     0.110869494
 H       -0.805271891    14.351188605     0.924641409
 H       -3.324942114    11.403154889    -3.658603068
 H       -3.684449662    12.835085389    -4.610799081
 H       -4.953206874    12.101670594    -3.646761751
 H       -3.935774850    15.378155346    -1.915207513
 H       -5.322006511    14.504886507    -2.594854961
 H       -4.017927743    15.052307273    -3.639891602
 H       -2.573938362    -1.592469791    -0.727009128
 H       -2.483425179    -1.583927237    -2.481479973
 H       -2.689160114    -0.064447803    -1.621178883
 H        0.910089754    -0.154112631    -2.957843261
 H       -0.592307531     0.790773982    -2.987285874
 H       -0.530194413    -0.803490017    -3.726063679
 H       -0.620819684    -2.977756761     0.663174845
 H       -0.700887186    -2.921021808     2.417313382
 H        0.825556340    -2.588083965     1.612440691
 H       -0.461125005     0.768072330     2.937245475
 H        0.889518632    -0.374504460     3.017073766
 H       -0.673806488    -0.802352236     3.699736210

