187   

Si        0.000000000     0.000000000     0.000000000
 C        1.865446397     0.000000000     0.000000000
 C       -0.672887544     1.713469614     0.000000000
 C        0.130709245     2.800524323    -0.358510558
 C       -0.385918479     4.095955571    -0.356207152
 C       -1.716677206     4.334187676    -0.002764864
 C       -2.521923191     3.243365020     0.351388061
 C       -2.008769279     1.949180408     0.351671476
 C       -2.298893816     5.672130757     0.013507727
 C       -1.635782950     6.797576530    -0.302142840
 C       -2.215103389     8.136610291    -0.286819921
 C       -1.405085914     9.224059553    -0.640176232
 C       -1.913178716    10.520299656    -0.640401724
 C       -3.242270008    10.762427602    -0.270179942
 C       -4.051846542     9.677955729     0.084179755
 C       -3.544565485     8.379344773     0.069031149
Si       -3.915921865    12.472606685    -0.269485734
 C       -5.306610858    12.699083109     0.896594030
 C       -5.454252055    12.013897930     2.038358791
 C       -6.568273905    12.196299523     2.971047749
 C       -6.607630173    11.414544429     4.135314162
 C       -7.639346656    11.547793814     5.050301475
 C       -8.652096164    12.504802126     4.841351321
 C       -8.622610281    13.280787081     3.673371913
 C       -7.606285357    13.102305726     2.741044819
 N       -9.685195787    12.598860214     5.810320853
 C       -9.229848125    12.867557126     7.190258300
 C      -10.849397673    13.417473577     5.429947702
 C       -8.596864006    14.255599567     7.407215590
 C       -7.056036272    14.194791823     7.418561631
 N       -6.386201571    15.468612540     7.069445106
 C       -6.522243482    15.760409220     5.671737214
 C       -5.613332298    15.114292586     4.817438618
 C       -5.673697795    15.339096877     3.451795884
 C       -6.620304152    16.222285405     2.908774372
 C       -7.507863511    16.872122588     3.768539837
 C       -7.460308967    16.652396508     5.142443074
 C       -6.754880935    16.579389089     7.964686695
 C       -6.638065797    16.421259439     1.457608613
 C       -7.489707561    17.234795067     0.819362364
Si       -7.494521838    17.468464437    -0.993900554
 C       -5.807861393    17.243171132    -1.690085911
 C       -4.730029535    17.936781149    -1.122013966
 C       -3.443919114    17.782051116    -1.632235873
 C       -3.203857918    16.941017290    -2.727596485
 C       -4.281764069    16.258290342    -3.296160998
 C       -5.570716345    16.409027840    -2.785987976
 C       -1.841505298    16.807022294    -3.231235261
 C       -1.489932551    16.030898863    -4.270383071
 C       -0.131670053    15.889119833    -4.782546712
 C        0.958245100    16.563790035    -4.226851611
 C        2.240674569    16.397945046    -4.749632044
 C        2.459495798    15.554184706    -5.843096024
 C        1.367691753    14.875207673    -6.400935577
 C        0.089639936    15.039206081    -5.874551075
Si        4.145638436    15.323986058    -6.545406499
 C        5.340325437    16.601567433    -5.897642120
 C        4.789055335    13.593227229    -6.082779245
 C        4.023646588    15.438578150    -8.441409594
 C       -8.689309550    16.176501701    -1.725273047
 C       -8.136694069    19.206105297    -1.409834148
 C       -2.535292600    13.681834969     0.243960050
 C       -4.501043770    12.937100349    -2.015201629
 C       -0.620702400    -0.917618165    -1.547545549
 C       -0.654426188    -0.907254841     1.540462320
 H        1.178933614     2.677405988    -0.644404668
 H        0.261776756     4.924947668    -0.635663978
 H       -3.561408058     3.406749113     0.629608497
 H       -2.684683229     1.138310719     0.637135482
 H       -3.351226198     5.710153233     0.309551882
 H       -0.583403568     6.758394027    -0.598636194
 H       -0.367474503     9.056299796    -0.922143407
 H       -1.236487824    11.327720176    -0.936008503
 H       -5.100036478     9.807062735     0.374632350
 H       -4.196606163     7.551863565     0.342469837
 H       -6.034882811    13.468881009     0.593644846
 H       -4.738311808    11.247978879     2.368057930
 H       -5.819410220    10.684832692     4.322718653
 H       -7.674296535    10.908540493     5.928719255
 H       -9.381225171    14.034395899     3.485459672
 H       -7.612738408    13.709567812     1.833091151
 H      -11.644081975    13.281819631     6.183402426
 H      -11.250165126    13.051098991     4.467697705
 H      -10.638111733    14.494464953     5.337647578
 H       -6.430365048    16.322196742     8.987899004
 H       -7.827498851    16.819759505     7.990564703
 H       -6.200184991    17.484442921     7.660663377
 H       -4.873157588    14.434688868     5.238324786
 H       -4.976460764    14.813607342     2.793833161
 H       -8.249547791    17.562912085     3.368850869
 H       -8.157470331    17.170027420     5.793561437
 H       -5.860889564    15.844931380     0.932747211
 H       -8.260305452    17.801205033     1.362254247
 H       -4.858076828    18.602873233    -0.262253477
 H       -2.617761713    18.323834236    -1.175719067
 H       -4.123856447    15.598759422    -4.148051688
 H       -6.372485667    15.852019430    -3.279094838
 H       -1.092284927    17.396080494    -2.695148422
 H       -2.242111546    15.442655865    -4.805196095
 H        0.814145808    17.228698800    -3.377165353
 H        3.054192870    16.952457003    -4.273546708
 H        1.479017429    14.202930150    -7.256525406
 H       -0.745440867    14.501774010    -6.320165830
 H      -10.113761385    12.746127190     7.857533252
 H       -8.520801304    12.062521382     7.486229612
 H       -8.932732450    14.948131029     6.610068645
 H       -8.962386859    14.692179645     8.352770946
 H       -6.687462643    13.889049129     8.421538193
 H       -6.699151342    13.419593105     6.698881560
 H        2.263535004    -1.028798770     0.057660249
 H        2.260493595     0.558020038     0.868445455
 H        2.275592548     0.464252785    -0.913804551
 H        6.337238433    16.484323547    -6.359056366
 H        5.469338035    16.524258093    -4.803839164
 H        4.988299627    17.624280811    -6.124815820
 H        5.841932548    13.541725486    -6.485384084
 C        4.848964181    13.374537002    -4.559767567
 C        3.981499643    12.444992356    -6.713716703
 H        3.325070861    14.609780368    -8.756980828
 C        3.415218465    16.771626179    -8.913106075
 C        5.368062337    15.219227375    -9.157571007
 H       -8.616157508    16.282794000    -2.845576795
 C       -8.303566785    14.734505670    -1.347900808
 C      -10.156204559    16.413775588    -1.323179625
 H       -9.176686571    19.264376790    -0.975187077
 C       -7.293670439    20.323811812    -0.770263973
 C       -8.236984027    19.460952034    -2.924047600
 H       -1.774328895    13.651860612    -0.588475131
 C       -3.022984423    15.131214704     0.390604732
 C       -1.839350848    13.261080565     1.550789121
 H       -4.846464969    14.012153964    -1.951220814
 C       -3.380386571    12.862126934    -3.066701024
 C       -5.689430347    12.079341827    -2.483862947
 H       -0.137934803    -1.936786875    -1.513543320
 C       -2.147242216    -1.113434404    -1.572639877
 C       -0.190162167    -0.228701038    -2.855510521
 H       -1.779145471    -0.910281948     1.443474963
 C       -0.186789468    -2.370460929     1.636109720
 C       -0.296902604    -0.179692842     2.849188923
 H        5.477872941    14.107173569    -4.037733782
 H        5.279131591    12.387312069    -4.337691322
 H        3.856581046    13.390737533    -4.086677225
 H        3.958446822    12.479114538    -7.810312488
 H        2.943388254    12.405576201    -6.354772111
 H        4.433084842    11.478065025    -6.447321564
 H        2.422343565    16.971043031    -8.485089298
 H        3.281973790    16.760170460   -10.004331881
 H        4.052001144    17.637673300    -8.688797428
 H        5.831672035    14.251681350    -8.925404265
 H        6.103800224    16.004199323    -8.937695743
 H        5.219523858    15.234723877   -10.247208543
 H       -7.277519810    14.462361809    -1.634256218
 H       -8.964237951    14.021191807    -1.860306368
 H       -8.410835704    14.534524248    -0.271470622
 H      -10.543099759    17.391078890    -1.637695779
 H      -10.324932150    16.317599022    -0.241492783
 H      -10.802606467    15.663764697    -1.801722412
 H       -7.194654328    20.228846621     0.319586978
 H       -7.764513331    21.300623201    -0.952306726
 H       -6.281552073    20.389645933    -1.194238328
 H       -8.897340264    18.754327851    -3.443039763
 H       -7.260435983    19.436267795    -3.428628652
 H       -8.651948602    20.462147514    -3.110845957
 H       -3.563058631    15.504383767    -0.491995641
 H       -2.165634341    15.805644431     0.526220823
 H       -3.670870818    15.278883175     1.265562591
 H       -1.393143368    12.258559656     1.505475200
 H       -2.511778262    13.283820724     2.420419832
 H       -1.016622679    13.953553666     1.777853434
 H       -2.560794251    13.569213422    -2.874509984
 H       -3.776821819    13.114311287    -4.060275827
 H       -2.941439828    11.859016745    -3.160832173
 H       -6.551748737    12.117065835    -1.804106304
 H       -5.423470828    11.021418460    -2.619555747
 H       -6.048177733    12.431405709    -3.461034462
 H       -2.527351624    -1.684713322    -0.716325375
 H       -2.438700267    -1.677612183    -2.470534110
 H       -2.698938669    -0.163614541    -1.616529444
 H        0.897622251    -0.122523358    -2.955457994
 H       -0.635070166     0.769325043    -2.978597715
 H       -0.521353926    -0.821416854    -3.720219584
 H       -0.467942334    -2.974796830     0.764035735
 H       -0.649385115    -2.855842076     2.507814484
 H        0.898579135    -2.465129338     1.772926681
 H       -0.649668284     0.861310901     2.877167113
 H        0.781999654    -0.168358803     3.053160835
 H       -0.767929367    -0.686558538     3.703371924

