187   

Si        0.000000000     0.000000000     0.000000000
 C        1.865378771     0.000000000     0.000000000
 C       -0.675946366     1.711773526     0.000000000
 C        0.162570617     2.824074850     0.119264155
 C       -0.367244878     4.114341946     0.117368062
 C       -1.745931325     4.320798475     0.023342634
 C       -2.585010597     3.203961248    -0.088978298
 C       -2.058346083     1.915997931    -0.106675750
 C       -2.344103815     5.651598581     0.017641230
 C       -1.654521000     6.802255236     0.100122781
 C       -2.257451679     8.130832371     0.094013875
 C       -3.638531622     8.327618879    -0.000458325
 C       -4.174568832     9.613601749    -0.002926205
 C       -3.338600082    10.733315812     0.088431640
 C       -1.955863077    10.539980709     0.181733145
 C       -1.423466350     9.252259400     0.183366122
Si       -4.068821576    12.421203844     0.083279002
 C       -2.778492528    13.708422520    -0.080821247
 C       -2.671560305    14.779295238     0.716949470
 C       -1.643890014    15.814030904     0.594283459
 C       -1.656012537    16.881457514     1.504238047
 C       -0.710114561    17.891020842     1.439434443
 C        0.245835767    17.909845469     0.400944789
 C        0.249876381    16.844486459    -0.520123521
 C       -0.666159238    15.805737002    -0.403191014
 N        1.199064026    18.943796355     0.351731997
 C        0.766387116    20.300022998     0.737976666
 C        2.111451283    18.948644065    -0.804525467
 C       -0.163161341    20.999409290    -0.271776803
 C       -1.650179616    20.825872806     0.093331696
 N       -2.573830650    21.144920381    -1.008143456
 C       -2.523587584    20.324972391    -2.151345572
 C       -2.009658787    19.014390735    -2.071198814
 C       -1.959296199    18.206653972    -3.193558422
 C       -2.487756031    18.638147025    -4.418699194
 C       -3.032159884    19.922296657    -4.491188212
 C       -3.053941585    20.758823535    -3.381676263
 C       -2.710170489    22.592757302    -1.242525496
 C       -2.402998764    17.737162384    -5.566648889
 C       -2.863298203    18.013512189    -6.794581520
Si       -2.721108499    16.832754838    -8.185796818
 C       -2.754624393    15.104536594    -7.554626003
 C       -3.480794038    14.803887824    -6.394715360
 C       -3.517206187    13.502899447    -5.903274589
 C       -2.834640380    12.469085626    -6.557135472
 C       -2.117993862    12.770212145    -7.718521901
 C       -2.082592420    14.072376621    -8.216772440
 C       -2.904750389    11.122720830    -6.000954678
 C       -2.303215496    10.043377348    -6.528124568
 C       -2.376155077     8.698229062    -5.968166598
 C       -3.094598214     8.403789994    -4.806369690
 C       -3.136830700     7.102695656    -4.306643893
 C       -2.479500468     6.063727053    -4.973779123
 C       -1.763306253     6.354933580    -6.142233327
 C       -1.708698912     7.658000488    -6.628733894
Si       -2.530184334     4.343642361    -4.321070654
 C       -3.862488315     4.166755641    -3.028978402
 C       -2.859880497     3.131666225    -5.749468464
 C       -0.837598017     3.965236700    -3.526861518
 C       -4.189784342    17.093802852    -9.364263270
 C       -1.104340327    17.160612098    -9.131211132
 C       -5.220332442    12.552457417    -1.430169335
 C       -5.089941656    12.693954711     1.663842869
 C       -0.665034851    -0.865908970    -1.559845696
 C       -0.601351726    -0.946254753     1.536892959
 H        1.247669656     2.725305029     0.208699145
 H        0.308128044     4.964086188     0.201082356
 H       -3.662629484     3.341420461    -0.159235689
 H       -2.761142293     1.084175319    -0.207733231
 H       -3.435898965     5.662348363    -0.052575343
 H       -0.563285667     6.794937689     0.177477636
 H       -4.308555993     7.473504774    -0.074638141
 H       -5.261304345     9.706201673    -0.083940278
 H       -1.257273348    11.379024011     0.256721431
 H       -0.345211486     9.120626771     0.253039061
 H       -2.081572058    13.544602928    -0.918129526
 H       -3.363940709    14.967707948     1.549504573
 H       -2.410372687    16.910819594     2.291513230
 H       -0.706940086    18.667582668     2.199215066
 H        0.969165115    16.815303616    -1.332778177
 H       -0.628714916    14.983416945    -1.120169381
 H        2.825793705    19.783826046    -0.715156147
 H        1.595773644    19.037026543    -1.775630520
 H        2.706309081    18.016976801    -0.799046033
 H       -2.653070532    23.141269285    -0.288248635
 H       -3.710213791    22.795902490    -1.667773669
 H       -1.944622344    22.998863053    -1.922958591
 H       -1.640260648    18.619828578    -1.126041100
 H       -1.526035836    17.207955769    -3.107964247
 H       -3.449963196    20.281914669    -5.431907565
 H       -3.486276792    21.748773139    -3.479413351
 H       -1.911808187    16.782240069    -5.320209295
 H       -3.341551903    18.973254068    -7.030950392
 H       -4.039405559    15.569007284    -5.843580917
 H       -4.088172261    13.291186645    -5.000131338
 H       -1.581451640    11.985400117    -8.247793786
 H       -1.509945732    14.245563513    -9.131625443
 H       -3.500706379    11.035149301    -5.086909873
 H       -1.706656148    10.128341654    -7.440706287
 H       -3.619519222     9.193522125    -4.271379693
 H       -3.701730631     6.936527982    -3.384852544
 H       -1.229073976     5.582190917    -6.701287911
 H       -1.143273181     7.867517507    -7.534254639
 H        0.292014931    20.254018516     1.743429214
 H        1.689663777    20.909840639     0.880763875
 H        0.082730789    22.074614166    -0.329675962
 H        0.018476528    20.605453400    -1.292059935
 H       -1.858395616    19.778315536     0.419436862
 H       -1.911972904    21.464320388     0.965978270
 H        2.262687797    -1.030323190    -0.027341529
 H        2.272804587     0.489081547     0.902270087
 H        2.264450698     0.531738317    -0.882676045
 H       -3.905951569     3.130861187    -2.647267635
 H       -4.854821653     4.414418626    -3.444910834
 H       -3.674856864     4.834703716    -2.169015881
 H       -1.941338156     3.163569064    -6.404314061
 C       -3.058058932     1.678874198    -5.278248296
 C       -4.066561243     3.543914748    -6.612575414
 H       -1.053520724     3.265352782    -2.665659308
 C        0.171709658     3.274455104    -4.460148498
 C       -0.174816036     5.231276426    -2.952263347
 H       -4.124239451    18.164630575    -9.712913201
 C       -4.140242198    16.182991342   -10.603404143
 C       -5.543885649    16.903092510    -8.657142756
 H       -1.095778033    16.438043136    -9.997661741
 C       -1.014725900    18.587162027    -9.702286610
 C        0.141783036    16.888606581    -8.269048141
 H       -6.144845277    11.962266158    -1.168309780
 C       -5.644155535    13.998028581    -1.739069937
 C       -4.601611893    11.926968446    -2.693027563
 H       -5.416904834    13.774267887     1.634797777
 C       -6.356172761    11.823920770     1.754072868
 C       -4.254808196    12.476545331     2.939542173
 H       -1.790301913    -0.831209814    -1.474134829
 C       -0.269422147    -0.132976901    -2.854530943
 C       -0.244388368    -2.341781757    -1.670549277
 H       -0.066338524    -1.939718390     1.506369381
 C       -0.217789114    -0.238093919     2.849439869
 C       -2.114856856    -1.224803826     1.552781499
 H       -2.226229161     1.297412828    -4.670774293
 H       -3.138714804     1.010585626    -6.147020084
 H       -3.980473577     1.542642288    -4.697987363
 H       -3.972070873     4.554381218    -7.035221383
 H       -5.018595187     3.503404159    -6.067237762
 H       -4.170044925     2.861312794    -7.467514747
 H       -0.185121525     2.316278338    -4.857459378
 H        1.096420368     3.052582420    -3.906902554
 H        0.465781966     3.902546511    -5.311169314
 H       -0.816158243     5.774310953    -2.242407654
 H        0.129847233     5.945512684    -3.729422750
 H        0.735398292     4.960035502    -2.399497774
 H       -3.243058007    16.331243872   -11.217652555
 H       -4.998376891    16.391949077   -11.258458358
 H       -4.201364942    15.114339671   -10.351916376
 H       -5.679591526    17.562975236    -7.789219154
 H       -5.705587245    15.870132628    -8.316391895
 H       -6.366636174    17.130347288    -9.349452453
 H       -1.833333324    18.833368041   -10.390452828
 H       -0.085210975    18.703740909   -10.277796737
 H       -0.990180869    19.358889527    -8.920145370
 H        0.183636627    15.863790743    -7.874447793
 H        0.227231174    17.574870336    -7.414068745
 H        1.052914654    17.025852424    -8.867748733
 H       -6.163194628    14.487962763    -0.905476040
 H       -6.343610218    14.014271387    -2.587092347
 H       -4.798128140    14.642406161    -2.023017640
 H       -4.342081753    10.865685061    -2.566493702
 H       -3.693652828    12.450673338    -3.026196101
 H       -5.322139180    11.971102754    -3.522789609
 H       -7.050790540    11.973871332     0.918140242
 H       -6.918376466    12.075428394     2.665589378
 H       -6.133989588    10.750084614     1.821464694
 H       -3.344599698    13.090415535     2.981865988
 H       -3.947933985    11.429069223     3.073087150
 H       -4.846308232    12.739385530     3.827750426
 H       -0.578360792     0.923547537    -2.865948014
 H       -0.755067585    -0.606992348    -3.719207794
 H        0.810221324    -0.162749128    -3.051571249
 H       -0.556826836    -2.949444069    -0.811591073
 H        0.839092472    -2.470726712    -1.793392157
 H       -0.709945805    -2.799685171    -2.555428053
 H        0.862226944    -0.075053927     2.958679117
 H       -0.524768939    -0.848625537     3.710724335
 H       -0.714118012     0.735638461     2.970020310
 H       -2.467503733    -1.775259123     0.671551687
 H       -2.715544597    -0.309175528     1.643139712
 H       -2.372198386    -1.845024741     2.423981507

