187   

Si        0.000000000     0.000000000     0.000000000
 C        1.866420710     0.000000000     0.000000000
 C       -0.667119174     1.715115461     0.000000000
 C        0.181887525     2.824001344    -0.066131875
 C       -0.340530754     4.117329215    -0.065131908
 C       -1.719881988     4.330024555    -0.004800327
 C       -2.569510939     3.217539548     0.064084850
 C       -2.050921602     1.926148092     0.072307188
 C       -2.311445287     5.663357065    -0.001304673
 C       -1.614133238     6.810894639    -0.054416566
 C       -2.211267739     8.141969222    -0.050621076
 C       -1.369560502     9.260354068    -0.109924602
 C       -1.896549149    10.549456368    -0.108635902
 C       -3.281148921    10.750084939    -0.046757796
 C       -4.123430464     9.634095606     0.007840315
 C       -3.593100171     8.345178222     0.000740463
Si       -3.990089746    12.447059540    -0.044341021
 C       -5.615453255    12.508150556     0.792986341
 C       -5.972771124    11.693943763     1.795248090
 C       -7.271095826    11.736870076     2.469902647
 C       -7.519488070    10.825075739     3.508475624
 C       -8.730189711    10.823505824     4.178722267
 C       -9.716606372    11.781968987     3.867718455
 C       -9.469344940    12.697908642     2.834433101
 C       -8.268008170    12.653870355     2.133613755
 N      -10.936493618    11.731680138     4.586547467
 C      -10.801653963    11.813436338     6.054232195
 C      -12.032057997    12.566233789     4.065571764
 C      -10.314180014    13.171799437     6.596832606
 C       -8.778661467    13.302326733     6.650413635
 N       -8.116879122    12.731064402     7.841334758
 C       -8.141893895    11.303415465     7.871698670
 C       -7.243929339    10.637421653     7.019049487
 C       -7.210075892     9.251438641     6.993125856
 C       -8.056805569     8.495703245     7.818097402
 C       -8.933155660     9.166493122     8.675377190
 C       -8.971940415    10.556093239     8.716546043
 C       -8.516632488    13.383862053     9.099824679
 C       -7.986577585     7.032250558     7.757281975
 C       -8.751594118     6.225006174     8.503260483
Si       -8.738097609     4.397511425     8.499281089
 C       -7.121938333     3.623237287     8.092363090
 C       -5.923680022     4.339430556     8.170500139
 C       -4.710061869     3.727412105     7.855927563
 C       -4.664716818     2.384123598     7.473921071
 C       -5.865969348     1.665418892     7.405578081
 C       -7.079238671     2.274889149     7.711300459
 C       -3.422382622     1.698020752     7.135192212
 C       -2.202816138     2.261666954     7.157026442
 C       -0.964059632     1.569197784     6.816883670
 C       -0.932003494     0.227286215     6.428859850
 C        0.275650730    -0.395050896     6.112364869
 C        1.478297774     0.316411551     6.167417997
 C        1.448406954     1.663473103     6.552829000
 C        0.242442617     2.279819493     6.874491672
Si        3.078907198    -0.492823268     5.752279027
 C        2.804875375    -2.084439742     4.818505957
 C        4.096642758     0.716034174     4.690136340
 C        4.042316048    -0.860048648     7.350042427
 C       -9.270881792     3.824325551    10.234514683
 C      -10.034853774     3.814840833     7.231877229
 C       -2.803448455    13.642087338     0.841014815
 C       -4.218192999    13.023977144    -1.841781574
 C       -0.594475705    -0.966928925    -1.525719999
 C       -0.668638464    -0.845596965     1.570080574
 H        1.268944616     2.720142705    -0.118681121
 H        0.340982859     4.964339397    -0.113622569
 H       -3.646938083     3.362299379     0.117296650
 H       -2.761016942     1.097014929     0.140165466
 H       -3.404414922     5.678274346     0.050426459
 H       -0.521888105     6.797978691    -0.105188887
 H       -0.291073270     9.123472545    -0.156378866
 H       -1.190883442    11.383147194    -0.156973775
 H       -5.214074898     9.730185368     0.047286606
 H       -4.269906095     7.493315711     0.039262525
 H       -6.296223531    13.286860791     0.418114604
 H       -5.305194080    10.916880152     2.195795581
 H       -6.757090190    10.093565257     3.780204009
 H       -8.925069908    10.079396413     4.951022720
 H      -10.206976177    13.447669209     2.568247371
 H       -8.104709503    13.363365781     1.322286808
 H      -12.951742281    12.351681008     4.636512330
 H      -12.230201419    12.283375294     3.015977876
 H      -11.841361695    13.649636325     4.110275453
 H       -8.236641747    14.450406698     9.041941868
 H       -7.945770106    12.940837623     9.934549227
 H       -9.588905190    13.318913201     9.337325716
 H       -6.579719418    11.222328491     6.382482239
 H       -6.511324486     8.744929215     6.326586469
 H       -9.598623573     8.601330753     9.328021303
 H       -9.660490370    11.053678786     9.392654307
 H       -7.245041545     6.658020028     7.039671018
 H       -9.496465357     6.645751428     9.200793663
 H       -5.894829132     5.389550445     8.478664445
 H       -3.791773071     4.309228156     7.915288438
 H       -5.853241223     0.618142114     7.109996878
 H       -7.982543898     1.662714674     7.637000219
 H       -3.544360898     0.649289425     6.848235379
 H       -2.078840113     3.310451039     7.442220454
 H       -1.854640717    -0.347301476     6.373695557
 H        0.238309744    -1.448376126     5.820948103
 H        2.356718213     2.269612159     6.612341087
 H        0.239290973     3.327117342     7.171042757
 H      -11.796228539    11.568286705     6.492025340
 H      -10.122081753    10.995347595     6.389293675
 H      -10.721281331    13.990389874     5.974092344
 H      -10.740049466    13.333465271     7.604175279
 H       -8.322261330    12.833311297     5.746596168
 H       -8.494706078    14.378876300     6.608775198
 H        2.266207201    -1.027118027     0.067183173
 H        2.263487932     0.568977354     0.860896820
 H        2.271333078     0.455293431    -0.920689054
 H        3.763266647    -2.533977250     4.504261096
 H        2.205051224    -1.905192902     3.906227674
 H        2.271493274    -2.832350441     5.430416765
 H        4.285144932     1.618396316     5.341484168
 C        5.462316390     0.151838108     4.259765712
 C        3.333330625     1.187477563     3.439647153
 H        4.984160920    -1.389850147     7.025282110
 C        4.450882617     0.405140399     8.125877922
 C        3.273084751    -1.795429574     8.301056155
 H      -10.274566063     4.302951624    10.425390708
 C       -9.441195771     2.299919868    10.351061772
 C       -8.296604268     4.303387890    11.325741336
 H      -10.094045318     2.693337019     7.335985705
 C      -11.437931035     4.391737237     7.489082792
 C       -9.615799734     4.139558758     5.787043634
 H       -1.843711630    13.628382948     0.248209344
 C       -3.318587862    15.091986342     0.876358367
 C       -2.485467199    13.188539359     2.277127208
 H       -4.637250532    14.069774551    -1.783583635
 C       -2.899013688    13.080833210    -2.631688703
 C       -5.224024483    12.147576367    -2.609658078
 H       -0.063639114    -1.961951491    -1.475565157
 C       -2.108399708    -1.243223173    -1.552342521
 C       -0.198215999    -0.280915737    -2.846523285
 H       -1.775457275    -0.984052273     1.396809051
 C       -0.053715651    -2.231128892     1.834375020
 C       -0.497231976     0.030493936     2.822186510
 H        6.096501642    -0.144772865     5.105021463
 H        6.027322619     0.916664922     3.707346179
 H        5.376789301    -0.711718597     3.586984246
 H        2.372101383     1.669343900     3.673246842
 H        3.132701611     0.372060675     2.730663433
 H        3.925652486     1.935894004     2.894453158
 H        5.084628561     1.086968876     7.544830651
 H        5.035151368     0.127885495     9.015436147
 H        3.587483579     0.977488789     8.493781590
 H        3.021692431    -2.764232722     7.850729801
 H        2.340416581    -1.350281063     8.676563184
 H        3.885085311    -2.018533277     9.186844198
 H      -10.187632033     1.890264459     9.658942924
 H       -9.784026814     2.036457276    11.362296779
 H       -8.501010019     1.751342179    10.195965298
 H       -8.164737820     5.393833264    11.346843471
 H       -7.298095021     3.851591757    11.234952110
 H       -8.672548356     4.018874267    12.318689202
 H      -11.838584747     4.140357624     8.479100281
 H      -12.150692541     3.984283589     6.757472190
 H      -11.477108395     5.484637371     7.377580963
 H       -8.650150075     3.696954920     5.504548394
 H       -9.555393508     5.219959522     5.590172696
 H      -10.355643040     3.738804786     5.079908076
 H       -3.486833050    15.518529232    -0.120653712
 H       -2.578944507    15.741297477     1.366805444
 H       -4.249632511    15.201033569     1.450080437
 H       -2.051607137    12.180110001     2.329622632
 H       -3.366592453    13.203567960     2.935124377
 H       -1.748570012    13.864704862     2.732773412
 H       -2.161029913    13.767932387    -2.198658274
 H       -3.088117073    13.438522470    -3.654259001
 H       -2.420129245    12.096574243    -2.736509158
 H       -6.215351902    12.105140644    -2.138031391
 H       -4.875632479    11.112869564    -2.741439093
 H       -5.380323959    12.549554147    -3.620651244
 H       -2.466778343    -1.795645985    -0.674742332
 H       -2.360784712    -1.861465979    -2.426283251
 H       -2.707871110    -0.327089430    -1.644643119
 H        0.883336780    -0.126028528    -2.951089986
 H       -0.687931384     0.693849645    -2.984501742
 H       -0.503235753    -0.901949383    -3.700763184
 H       -0.212836074    -2.940323638     1.012594740
 H       -0.515988050    -2.682060996     2.724580332
 H        1.025290105    -2.188494240     2.035334510
 H       -0.990432625     1.010157606     2.741248719
 H        0.553660483     0.216419632     3.081994731
 H       -0.945557981    -0.461381973     3.697830618

