187   

Si        0.000000000     0.000000000     0.000000000
 C        1.864979565     0.000000000     0.000000000
 C       -0.677521873     1.710511592     0.000000000
 C        0.053448026     2.752783810    -0.581104857
 C       -0.449058309     4.052769233    -0.587409156
 C       -1.685281196     4.343416874    -0.003616665
 C       -2.417022399     3.298631149     0.573021949
 C       -1.925666108     1.995807309     0.566459691
 C       -2.246083391     5.690174920     0.010792722
 C       -1.643516891     6.765388097    -0.524592704
 C       -2.185788754     8.118775630    -0.521198580
 C       -1.433829400     9.136740511    -1.122572674
 C       -1.901840621    10.447524285    -1.149064420
 C       -3.152176131    10.761921824    -0.604341989
 C       -3.909558254     9.746971747    -0.008699743
 C       -3.424498739     8.440664300     0.041018347
Si       -3.784351792    12.487869846    -0.631510249
 C       -5.603880190    12.430838992    -0.785601672
 C       -6.480955219    13.088838120    -0.017636654
 C       -7.932758179    13.004961562    -0.187732421
 C       -8.758398240    13.739199004     0.676279565
 C      -10.137396044    13.692701685     0.555472503
 C      -10.738770652    12.849060387    -0.401335899
 C       -9.914691699    12.110359432    -1.264504270
 C       -8.531390859    12.214183394    -1.171353322
 N      -12.153243694    12.836459190    -0.486716403
 C      -12.850311183    12.580556662     0.792707568
 C      -12.726143589    12.056489290    -1.598198974
 C      -12.515936805    11.228326758     1.450885717
 C      -11.449087240    11.384519790     2.552371505
 N      -10.935679416    10.103326276     3.067545710
 C      -10.226319653     9.300173957     2.146758164
 C       -9.280209226     9.900526670     1.290614853
 C       -8.570386597     9.137056139     0.378173188
 C       -8.727262521     7.744529847     0.323297883
 C       -9.641498666     7.148791962     1.195648145
 C      -10.380989074     7.904436884     2.097453643
 C      -11.906387216     9.415342610     3.935242224
 C       -7.959743778     6.968353397    -0.655200397
 C       -8.057312663     5.637582809    -0.765683543
Si       -7.187033506     4.516559794    -1.914776433
 C       -6.477814063     3.155758787    -0.893439875
 C       -6.225259646     3.381307477     0.466439279
 C       -5.690106789     2.371784557     1.261361328
 C       -5.389832126     1.115544175     0.718520034
 C       -5.637400678     0.894964050    -0.639179882
 C       -6.172810585     1.904858675    -1.438794651
 C       -4.830657047     0.095047247     1.598356672
 C       -4.494250020    -1.149527814     1.219649308
 C       -3.935502554    -2.159852334     2.112336426
 C       -3.697024417    -1.914416415     3.467634617
 C       -3.161797842    -2.905713343     4.288902389
 C       -2.861872917    -4.171372294     3.774019782
 C       -3.101531978    -4.420395722     2.416309346
 C       -3.628372254    -3.425613124     1.596415721
Si       -2.154854068    -5.478223458     4.862492929
 C       -2.582053782    -5.172548185     6.651941009
 C       -2.817238993    -7.173617226     4.307822881
 C       -0.260938127    -5.478794145     4.668252145
 C       -8.467176483     3.787223587    -3.121713312
 C       -5.850591825     5.383039087    -2.943878219
 C       -3.248588292    13.361869754     0.969049857
 C       -3.080094872    13.437408797    -2.120512484
 C       -0.632706886    -0.882628255    -1.566299559
 C       -0.664144506    -0.956083775     1.500818357
 H        1.030317274     2.588788259    -1.043433926
 H        0.136724089     4.844305563    -1.050250796
 H       -3.391328399     3.500075096     1.018712106
 H       -2.551749093     1.218114284     1.017208416
 H       -3.214822406     5.781130269     0.512578507
 H       -0.670618240     6.666943417    -1.015465948
 H       -0.468075466     8.905237556    -1.567202327
 H       -1.263793380    11.202234943    -1.616120666
 H       -4.892754042     9.940303658     0.434860448
 H       -4.022964455     7.669115874     0.524564110
 H       -5.944583981    11.783134917    -1.611579068
 H       -6.177147756    13.744297340     0.808180844
 H       -8.310970563    14.371059807     1.443874136
 H      -10.759122039    14.314013423     1.195269330
 H      -10.342108503    11.446319982    -2.010137313
 H       -7.912073093    11.649702694    -1.870603938
 H      -13.814466961    12.234113779    -1.639975713
 H      -12.553874148    10.970682584    -1.523241153
 H      -12.306457452    12.420601069    -2.552886260
 H      -12.328806020    10.135579428     4.656335607
 H      -11.380438739     8.643924347     4.526703785
 H      -12.737128058     8.942539525     3.388379381
 H       -9.110098213    10.976421548     1.332194701
 H       -7.862844634     9.631387287    -0.290186358
 H       -9.788425192     6.067650050     1.177605005
 H      -11.086073004     7.397768532     2.747930093
 H       -7.296326290     7.575884981    -1.282228305
 H       -8.750659365     5.074501776    -0.113364113
 H       -6.435822149     4.344463417     0.944464120
 H       -5.508348797     2.562846938     2.317602329
 H       -5.408307088    -0.070320260    -1.086155629
 H       -6.339907726     1.678209281    -2.494956573
 H       -4.693153604     0.414717956     2.636492485
 H       -4.635127115    -1.475429188     0.185248780
 H       -3.925963802    -0.939597626     3.895339937
 H       -2.994720738    -2.652844681     5.339666989
 H       -2.886447227    -5.390028060     1.959003684
 H       -3.804629398    -3.639041656     0.543729348
 H      -12.620754583    13.422153081     1.484105623
 H      -13.944880816    12.648480810     0.599706860
 H      -13.428991485    10.774169098     1.873593543
 H      -12.155881032    10.509175184     0.688270585
 H      -10.581654089    11.974716284     2.173537095
 H      -11.858558350    11.965560256     3.408234086
 H        2.261626549    -1.028550357     0.068521440
 H        2.258858836     0.566151321     0.863646551
 H        2.277182714     0.456272898    -0.916042845
 H       -2.216859413    -5.993951577     7.294083698
 H       -3.676572532    -5.104991558     6.790721386
 H       -2.137273063    -4.234599144     7.027673121
 H       -2.476549795    -7.306310458     3.239678272
 C       -2.256763475    -8.349144345     5.128246938
 C       -4.355166645    -7.240292303     4.323659074
 H        0.118939466    -6.256258050     5.392619624
 C        0.209258898    -5.873027201     3.256854659
 C        0.374988545    -4.127937768     5.043981680
 H       -7.890300677     3.105315514    -3.810900200
 C       -9.540543123     2.944131694    -2.410322262
 C       -9.160902166     4.858290565    -3.981519404
 H       -6.378922140     6.217605833    -3.490576160
 C       -4.738702106     6.001542018    -2.083707910
 C       -5.198931939     4.459876673    -3.990343489
 H       -3.742426589    14.376129568     0.951638402
 C       -3.722041935    12.617751552     2.231102177
 C       -1.726983374    13.574077429     1.061013867
 H       -1.959756590    13.443729410    -1.984966709
 C       -3.393383517    12.750745301    -3.462150652
 C       -3.558878341    14.898661660    -2.182746754
 H       -0.129353695    -1.891274722    -1.578279287
 C       -2.155785947    -1.107038131    -1.558819669
 C       -0.248881144    -0.140231687    -2.859305482
 H       -1.790528161    -0.959358401     1.385874298
 C       -0.196855959    -2.421387063     1.540798968
 C       -0.336999869    -0.290557148     2.848927984
 H       -1.160932350    -8.410077609     5.108573496
 H       -2.624219546    -9.301388763     4.718701702
 H       -2.571838706    -8.326467601     6.179911012
 H       -4.830523449    -6.461229908     3.710804752
 H       -4.777413864    -7.167700754     5.334860235
 H       -4.695435730    -8.202678657     3.915560487
 H       -0.117316205    -6.875882348     2.953896799
 H        1.308344988    -5.884617975     3.216816517
 H       -0.117684769    -5.164946799     2.481841472
 H        0.155818236    -3.813403732     6.072283244
 H        0.072819347    -3.309279777     4.373830199
 H        1.470150897    -4.194326436     4.970809894
 H       -9.122615322     2.129620992    -1.802262395
 H      -10.197319571     2.467313875    -3.151597150
 H      -10.193424132     3.542686317    -1.760475629
 H       -8.462817856     5.445275409    -4.592299591
 H       -9.757170281     5.564327691    -3.386102689
 H       -9.859135681     4.382832200    -4.684841832
 H       -5.104673207     6.688122683    -1.308793156
 H       -4.052840529     6.590802800    -2.710266165
 H       -4.116048183     5.237657757    -1.592841609
 H       -5.908883773     4.054072710    -4.720742341
 H       -4.658181427     3.615947895    -3.537531864
 H       -4.451157947     5.021956949    -4.569408854
 H       -4.808287862    12.455209319     2.265945088
 H       -3.466921222    13.197668655     3.129094646
 H       -3.239915360    11.636484507     2.352116357
 H       -1.322256793    14.188348760     0.246691729
 H       -1.163375470    12.630323114     1.081698920
 H       -1.476408039    14.099119874     1.994336629
 H       -3.053239001    11.706741015    -3.509106753
 H       -2.884198087    13.276512787    -4.282439319
 H       -4.464201923    12.761969868    -3.707737384
 H       -3.290608408    15.482989211    -1.293088571
 H       -4.645447805    14.987747040    -2.324381563
 H       -3.094830088    15.410644615    -3.037962755
 H       -2.490304505    -1.743647411    -0.728339501
 H       -2.467028984    -1.613093689    -2.482990135
 H       -2.725707651    -0.167181028    -1.513646656
 H        0.832959716    -0.001363842    -2.978051024
 H       -0.722945099     0.849191146    -2.938006839
 H       -0.582655591    -0.712204938    -3.736243581
 H       -0.413133766    -2.977309074     0.620111276
 H       -0.731819694    -2.953541001     2.344840399
 H        0.873884890    -2.524641699     1.754354934
 H       -0.684623738     0.749823199     2.914540431
 H        0.735316407    -0.297578556     3.081404944
 H       -0.837732865    -0.836066948     3.662887510

