187   

Si        0.000000000     0.000000000     0.000000000
 C        1.864868281     0.000000000     0.000000000
 C       -0.680471132     1.710701910     0.000000000
 C        0.027022267     2.758735707     0.598976765
 C       -0.488657849     4.054609665     0.598861501
 C       -1.723910591     4.331320797     0.007041201
 C       -2.434785116     3.279336831    -0.585511564
 C       -1.923092256     1.984614395    -0.585845646
 C       -2.305906488     5.668727334    -0.019265209
 C       -1.738704283     6.766697973     0.508784660
 C       -2.333333278     8.099105722     0.474787710
 C       -1.641285000     9.165733712     1.061946166
 C       -2.173512715    10.453806761     1.051495173
 C       -3.404738239    10.706294411     0.438506933
 C       -4.097140277     9.641733491    -0.153027680
 C       -3.567764761     8.353670610    -0.130744980
Si       -4.156593816    12.384135396     0.393136417
 C       -4.943305715    12.682134601    -1.234105148
 C       -4.487157794    12.113476382    -2.358043837
 C       -5.064290250    12.305696439    -3.689623028
 C       -4.466594889    11.635980773    -4.768540923
 C       -4.963405633    11.774796420    -6.053990699
 C       -6.092387645    12.580820462    -6.285726977
 C       -6.689796613    13.257634048    -5.216545453
 C       -6.165147165    13.130004300    -3.933058492
 N       -6.535813296    12.666453653    -7.642828436
 C       -7.212724516    11.427143857    -8.090352045
 C       -7.295520562    13.885023962    -7.972138200
 C       -8.611947690    11.207693723    -7.483196857
 C       -8.865046068     9.757727018    -7.029273525
 N       -8.371186494     9.412502087    -5.681099630
 C       -8.721700174    10.278352747    -4.629751711
 C       -9.958360958    10.959102475    -4.665801562
 C      -10.317311860    11.814893691    -3.637896398
 C       -9.495370664    11.986553169    -2.515483210
 C       -8.290925860    11.280322294    -2.460814166
 C       -7.910307426    10.427680520    -3.488561858
 C       -6.997218323     8.884626188    -5.672219398
 C       -9.932581370    12.905237126    -1.465210274
 C       -9.245313654    13.160853721    -0.343893296
Si       -9.828839065    14.318135479     0.945572767
 C      -10.854738235    15.654107809     0.206317868
 C      -10.494600242    16.179356343    -1.042777326
 C      -11.251210600    17.190569475    -1.627315946
 C      -12.378334929    17.710371827    -0.976371177
 C      -12.730483902    17.189519994     0.271438938
 C      -11.976639791    16.173113193     0.858339881
 C      -13.139255281    18.769997258    -1.630025771
 C      -14.237923447    19.350690334    -1.118510552
 C      -14.998607080    20.410321933    -1.772476628
 C      -14.646591834    20.931274280    -3.020270220
 C      -15.402680037    21.944647252    -3.609181055
 C      -16.526795146    22.463154001    -2.958787696
 C      -16.882255844    21.942003623    -1.707271456
 C      -16.128716197    20.926990902    -1.124381530
Si      -17.534905460    23.800589531    -3.722810833
 C      -16.651213690    24.588062818    -5.164576103
 C      -19.184597918    23.076885690    -4.337576270
 C      -17.907591064    25.105477678    -2.387805730
 C      -10.820618288    13.356920628     2.252218723
 C       -8.305525302    15.092883270     1.780110739
 C       -5.498634478    12.476327877     1.736855459
 C       -2.866723771    13.741482826     0.709853998
 C       -0.641660299    -0.933045239    -1.531015042
 C       -0.629597273    -0.903208251     1.552900488
 H        0.998513544     2.603339677     1.076459370
 H        0.082897344     4.853456767     1.067817195
 H       -3.399949144     3.472625391    -1.049956513
 H       -2.525657748     1.205132586    -1.060321852
 H       -3.278819890     5.731536876    -0.516555575
 H       -0.767361776     6.708787968     1.007628953
 H       -0.677921653     8.989560244     1.536619782
 H       -1.592053285    11.244684733     1.532692448
 H       -5.064939005     9.780957460    -0.648582751
 H       -4.126639610     7.542286770    -0.593862655
 H       -5.799838532    13.371678466    -1.238941189
 H       -3.625244473    11.428315088    -2.365607278
 H       -3.594153775    11.004574162    -4.597157088
 H       -4.478710499    11.279979377    -6.893449454
 H       -7.566991845    13.878996975    -5.374802285
 H       -6.642161772    13.665897569    -3.110326247
 H       -7.406349058    13.940682089    -9.069010097
 H       -6.714194026    14.769085067    -7.655522266
 H       -8.296876316    13.943197833    -7.519202573
 H       -6.831563126     8.237950693    -6.548447511
 H       -6.862158594     8.250453277    -4.776286214
 H       -6.223808709     9.673104069    -5.666411891
 H      -10.637565480    10.816505259    -5.500636404
 H      -11.265825255    12.350332987    -3.699801310
 H       -7.628609391    11.394602410    -1.599710951
 H       -6.960854038     9.905810915    -3.408900647
 H      -10.897360813    13.383764161    -1.689915569
 H       -8.285522604    12.666719304    -0.130830132
 H       -9.623374599    15.812154670    -1.596864832
 H      -10.960933927    17.581791270    -2.600507421
 H      -13.601230522    17.575237709     0.798307419
 H      -12.301821847    15.806417020     1.835659738
 H      -12.748249780    19.079864896    -2.603602004
 H      -14.629110574    19.040866295    -0.145000516
 H      -13.774097833    20.547645689    -3.545839420
 H      -15.077932344    22.311494404    -4.586800339
 H      -17.750667599    22.308239460    -1.152328002
 H      -16.421776581    20.533628671    -0.152833287
 H       -7.275915013    11.471535479    -9.200242807
 H       -6.544573265    10.569589353    -7.854538554
 H       -8.754326840    11.893829868    -6.621242330
 H       -9.387103234    11.501248031    -8.213947770
 H       -9.964278063     9.556576277    -7.030074868
 H       -8.433755690     9.042733137    -7.763517999
 H        2.262500308    -1.029781171    -0.040273686
 H        2.277464297     0.481200047     0.903768563
 H        2.258636679     0.543614220    -0.878342749
 H      -17.244928620    25.416398611    -5.590830879
 H      -16.463004037    23.862738482    -5.975327872
 H      -15.676759462    25.005312543    -4.851695010
 H      -19.723237564    23.931185109    -4.840832696
 C      -18.987059848    21.958600690    -5.377387999
 C      -20.084986257    22.545671607    -3.207978814
 H      -18.479221020    24.564914326    -1.578213931
 C      -16.628542233    25.683042126    -1.755075795
 C      -18.786243281    26.264583655    -2.890737874
 H      -11.152129662    14.119278324     3.014976650
 C      -12.076379460    12.694251412     1.657774712
 C       -9.993564811    12.284769233     2.984116971
 H       -7.729257862    14.230416482     2.228884793
 C       -7.388935519    15.813383895     0.775132034
 C       -8.664511501    16.064615159     2.916643988
 H       -6.056592305    13.439440746     1.541752892
 C       -6.497428309    11.309336710     1.649914800
 C       -4.933183222    12.536789013     3.166023238
 H       -2.407164306    13.508935166     1.713780682
 C       -1.743565178    13.739742029    -0.342509851
 C       -3.478927515    15.152175618     0.783241076
 H       -1.767444382    -0.930243611    -1.448147220
 C       -0.262549063    -0.235766067    -2.850151243
 C       -0.181101496    -2.400649457    -1.591747640
 H       -0.163937498    -1.930246170     1.522530812
 C       -0.186747204    -0.216607245     2.857807875
 C       -2.159392325    -1.071712472     1.577099789
 H      -18.421188498    22.279313993    -6.261464680
 H      -19.962585555    21.611299926    -5.746906140
 H      -18.482944929    21.073853909    -4.962470473
 H      -20.343780875    23.307311729    -2.461607211
 H      -19.644298294    21.689213522    -2.678390023
 H      -21.038423053    22.189182919    -3.624489994
 H      -15.973134426    24.913606373    -1.322273858
 H      -16.889051529    26.362870993    -0.931331761
 H      -16.027211988    26.270121807    -2.461819424
 H      -19.752890807    25.934817728    -3.292826223
 H      -18.293524162    26.872790743    -3.660865152
 H      -19.016368573    26.948357036    -2.060608308
 H      -12.753667641    13.402956328     1.161754443
 H      -12.663254439    12.213646008     2.452943725
 H      -11.837406641    11.904343747     0.930365675
 H       -9.119275796    12.691877300     3.507880930
 H       -9.647934932    11.483975518     2.314834276
 H      -10.609582618    11.795770435     3.752704683
 H       -7.060994886    15.173872839    -0.056369079
 H       -6.475509283    16.160238561     1.279189915
 H       -7.856597578    16.708105694     0.339758258
 H       -9.243885683    15.597665441     3.723298308
 H       -9.227480620    16.942423659     2.568623639
 H       -7.748194855    16.454560417     3.383033249
 H       -6.972681841    11.205674095     0.664734100
 H       -7.313250237    11.457038492     2.372726912
 H       -6.041808485    10.339851253     1.898786713
 H       -4.275881194    13.397964773     3.340689399
 H       -4.377112846    11.631307393     3.446226680
 H       -5.754869117    12.627181861     3.891621367
 H       -1.216251545    12.779130518    -0.420005324
 H       -0.981583846    14.488350240    -0.083476722
 H       -2.101489749    14.000469127    -1.349397589
 H       -4.239956341    15.256796141     1.567621237
 H       -3.928237779    15.472688675    -0.167323899
 H       -2.696626742    15.889208096     1.015433735
 H       -0.599558022     0.809176289    -2.903260134
 H       -0.731258665    -0.753617423    -3.699001583
 H        0.818598167    -0.243366534    -3.043101936
 H       -0.482714690    -2.987636703    -0.714586543
 H        0.905964046    -2.504680989    -1.706331255
 H       -0.630321154    -2.898820387    -2.463231528
 H        0.902859142    -0.131863608     2.958040583
 H       -0.530095841    -0.799348536     3.724749351
 H       -0.613113163     0.789965228     2.976606697
 H       -2.547958529    -1.644735408     0.725695031
 H       -2.694819404    -0.111996669     1.608533411
 H       -2.463015839    -1.621226411     2.480018799

