187   

Si        0.000000000     0.000000000     0.000000000
 C        1.865133256     0.000000000     0.000000000
 C       -0.678756080     1.711092242     0.000000000
 C        0.100213126     2.793004945     0.423009498
 C       -0.421065884     4.086662539     0.420169609
 C       -1.731777887     4.328018989     0.000224397
 C       -2.512696742     3.242250719    -0.417947426
 C       -1.995476817     1.949763915    -0.415786878
 C       -2.319688207     5.663289857    -0.019941411
 C       -1.683214900     6.786254468     0.353981912
 C       -2.272563942     8.120985233     0.333244792
 C       -3.583800790     8.358769766    -0.087371460
 C       -4.107799696     9.651195631    -0.091320290
 C       -3.335186721    10.732560828     0.343451083
 C       -2.021000763    10.496748312     0.769481711
 C       -1.496450694     9.207320177     0.758953218
Si       -3.996429196    12.449370508     0.350800445
 C       -3.358451056    13.413420871     1.766842043
 C       -3.021973234    12.877069479     2.947911564
 C       -2.510864464    13.643758822     4.084704360
 C       -2.193329782    12.966173316     5.270529600
 C       -1.706169134    13.644413962     6.375887744
 C       -1.567462292    15.049128612     6.349722136
 C       -1.887735275    15.729960219     5.159167146
 C       -2.328026970    15.028561324     4.044416041
 N       -1.071992979    15.729666273     7.476540791
 C       -1.376925394    15.152100244     8.798247940
 C       -1.170517322    17.199914701     7.460879391
 C       -2.885441381    15.091726805     9.097701205
 C       -3.194304573    14.904609118    10.592038064
 N       -2.683847634    15.960906898    11.496704155
 C       -2.696201861    17.271506128    10.967857629
 C       -3.910135003    17.760574933    10.439759822
 C       -3.975192961    19.037610064     9.909955854
 C       -2.853804746    19.882446382     9.918498339
 C       -1.662174599    19.403754430    10.465809490
 C       -1.577677065    18.119536375    10.993514892
 C       -1.476584452    15.560527341    12.237365433
 C       -2.979108673    21.223501350     9.344563825
 C       -1.981368902    22.116285607     9.295841522
Si       -2.136964796    23.791653882     8.579121584
 C       -3.843184964    24.458149554     8.741023903
 C       -4.630811755    24.099404580     9.842798186
 C       -5.924145954    24.596906622     9.977402973
 C       -6.457815485    25.474182437     9.024073431
 C       -5.666387576    25.837193846     7.930851399
 C       -4.372214275    25.337302404     7.790650777
 C       -7.818160273    25.968573450     9.209022050
 C       -8.447998098    26.808040457     8.369740266
 C       -9.808360786    27.302520006     8.554567054
 C      -10.600418880    26.940300260     9.647022460
 C      -11.896596899    27.437092511     9.784283116
 C      -12.426673006    28.314052641     8.832916419
 C      -11.633830646    28.679733026     7.736466922
 C      -10.342786875    28.177793306     7.599354077
Si      -14.135211335    28.979334503     8.998230555
 C      -14.852176471    28.620669929    10.682604524
 C      -14.072262013    30.857567819     8.695511489
 C      -15.257034858    28.189263936     7.678916711
 C       -0.938221686    24.950324549     9.494411819
 C       -1.634256170    23.711159858     6.745774887
 C       -3.461148787    13.315521239    -1.256370940
 C       -5.897446007    12.428257659     0.427206329
 C       -0.648749846    -0.913499918    -1.539626453
 C       -0.624295550    -0.915504681     1.547472826
 H        1.132555637     2.667006866     0.760934981
 H        0.207019123     4.911958034     0.750755158
 H       -3.536443057     3.407903574    -0.748132952
 H       -2.652840153     1.142841347    -0.751275304
 H       -3.354526158     5.701666613    -0.372528955
 H       -0.648184388     6.748480943     0.706284049
 H       -4.208517154     7.532645149    -0.421207237
 H       -5.136579233     9.775115002    -0.439943745
 H       -1.371567971    11.306316268     1.120428094
 H       -0.472382285     9.043777591     1.089409905
 H       -3.282175430    14.496379606     1.588536846
 H       -3.097408151    11.799379239     3.152931843
 H       -2.318519745    11.883755938     5.322729558
 H       -1.434567835    13.083464134     7.264982242
 H       -1.786659585    16.808627835     5.092313975
 H       -2.551462719    15.578663437     3.129204271
 H       -0.816812969    17.617993079     8.420407125
 H       -2.195289928    17.572070135     7.295506742
 H       -0.508401316    17.597417903     6.671007425
 H       -1.679506854    14.611234200    12.764342488
 H       -1.259181948    16.312913246    13.017054338
 H       -0.579905117    15.427937759    11.612407854
 H       -4.795780339    17.129503632    10.456711961
 H       -4.917469914    19.396228356     9.492620621
 H       -0.777816037    20.042105355    10.488087975
 H       -0.633136436    17.782274348    11.408154379
 H       -3.986160820    21.435904889     8.957842363
 H       -0.979478120    21.875948878     9.682816323
 H       -4.264190627    23.422431074    10.621996298
 H       -6.524136464    24.301325064    10.836182965
 H       -6.056432286    26.517708413     7.176367537
 H       -3.801737593    25.658105904     6.914780293
 H       -8.319833533    25.601378800    10.109184749
 H       -7.946536560    27.175169297     7.469437585
 H      -10.210149619    26.262104517    10.403695340
 H      -12.468544964    27.116310624    10.659368317
 H      -11.994963260    29.362423048     6.962042803
 H       -9.742909774    28.471912281     6.740196270
 H       -0.922415123    14.138434522     8.859018246
 H       -0.849231453    15.765490032     9.564113220
 H       -3.373820621    16.014218858     8.722193701
 H       -3.351040841    14.269546932     8.519291139
 H       -4.302431043    14.878172777    10.733829418
 H       -2.817616712    13.916294233    10.934197158
 H        2.262860915    -1.029241670    -0.052214808
 H        2.276485799     0.469614313     0.910489466
 H        2.259453586     0.553362012    -0.871868510
 H      -15.861550138    29.057403856    10.786622976
 H      -14.221235678    29.050251720    11.481853096
 H      -14.938981030    27.535596967    10.867454398
 H      -13.669010321    30.988606023     7.649227286
 C      -15.452283093    31.536001896     8.757039544
 C      -13.115013278    31.578266857     9.662075927
 H      -16.292701159    28.588436169     7.882520681
 C      -14.877313337    28.565825400     6.235692542
 C      -15.306378420    26.654331446     7.790429913
 H        0.090962088    24.510181078     9.354416399
 C       -0.928737563    26.379957569     8.926120831
 C       -1.230183432    25.013514360    11.004396770
 H       -1.677051655    24.771115216     6.361887758
 C       -0.203117148    23.186519271     6.532263425
 C       -2.607058402    22.858561679     5.911605522
 H       -3.896796187    14.355079447    -1.210218840
 C       -1.931308981    13.442968098    -1.368981744
 C       -4.000062028    12.626526973    -2.522062499
 H       -6.241151863    11.856170831    -0.482300636
 C       -6.423886697    11.702435147     1.678407334
 C       -6.522363754    13.833642838     0.366973955
 H       -1.773571583    -0.921343589    -1.444957979
 C       -0.291246364    -0.188041430    -2.849488145
 C       -0.175323353    -2.375150989    -1.631033833
 H       -0.149556404    -1.938312728     1.511955515
 C       -0.187416646    -0.231341268     2.855774582
 C       -2.152414944    -1.098980931     1.572831521
 H      -16.172320320    31.122837422     8.038946682
 H      -15.355991670    32.604507698     8.514934132
 H      -15.909406872    31.488022353     9.754263646
 H      -12.090051593    31.181421272     9.633940444
 H      -13.453821558    31.545358286    10.706021383
 H      -13.039403823    32.641920253     9.394707013
 H      -14.882297477    29.647330763     6.050373701
 H      -15.602520238    28.131666614     5.531974815
 H      -13.893407889    28.176299326     5.938786092
 H      -15.652061405    26.298371280     8.769455862
 H      -14.335373111    26.179789209     7.588043323
 H      -16.008523906    26.245279961     7.049839717
 H       -0.634293289    26.427658605     7.870008230
 H       -0.203133935    26.998064746     9.474797610
 H       -1.899179138    26.887268455     9.026509784
 H       -1.198102099    24.032223226    11.497136563
 H       -2.205682926    25.467338227    11.232182718
 H       -0.477452024    25.636354437    11.508396283
 H        0.562284921    23.788080672     7.038900556
 H        0.049040073    23.209942980     5.462117635
 H       -0.078189198    22.143014730     6.853916595
 H       -3.648417031    23.205737967     5.964984676
 H       -2.598465125    21.796814892     6.198221730
 H       -2.325585621    22.894306124     4.849800461
 H       -1.474175446    13.975142015    -0.523456732
 H       -1.665635766    14.011510078    -2.271378971
 H       -1.427680692    12.469773760    -1.460349818
 H       -5.095882562    12.582053018    -2.561140905
 H       -3.619124320    11.602780093    -2.647578872
 H       -3.683553278    13.181925611    -3.416802038
 H       -6.066394864    10.667253189     1.767040329
 H       -7.521096133    11.648254770     1.650425163
 H       -6.164081116    12.221332935     2.612778094
 H       -6.259178391    14.389216328    -0.542061442
 H       -6.254748777    14.457505644     1.231410608
 H       -7.619249220    13.757296219     0.372215254
 H       -0.646838608     0.851856134    -2.880911808
 H       -0.758904667    -0.698468121    -3.703385381
 H        0.788047929    -0.174020889    -3.051485557
 H       -0.458536177    -2.979438295    -0.759583755
 H        0.910988010    -2.466317887    -1.762685356
 H       -0.631993235    -2.863257290    -2.504347852
 H        0.901259686    -0.133770830     2.954886526
 H       -0.522424657    -0.822816407     3.719939843
 H       -0.624808237     0.769740282     2.980605064
 H       -2.537601374    -1.665301877     0.715493866
 H       -2.696336857    -0.144707032     1.618271051
 H       -2.448242467    -1.662604874     2.469633629

