187   

Si        0.000000000     0.000000000     0.000000000
 C        1.865346195     0.000000000     0.000000000
 C       -0.679368760     1.711001927     0.000000000
 C        0.141962341     2.816306305     0.243278208
 C       -0.386233488     4.107313234     0.240268630
 C       -1.746147169     4.322431278     0.002666345
 C       -2.568645655     3.213572941    -0.237872193
 C       -2.043581162     1.924446761    -0.240395281
 C       -2.342681098     5.653952755    -0.010086900
 C       -1.668431475     6.797262635     0.200136390
 C       -2.267156809     8.127965875     0.186914137
 C       -1.446052045     9.238935575     0.422122197
 C       -1.972837740    10.527971091     0.419229727
 C       -3.339357429    10.733882658     0.194403135
 C       -4.162340591     9.626788148    -0.038843290
 C       -3.628851227     8.338710184    -0.047055231
Si       -4.055097325    12.427695409     0.186484633
 C       -5.835322704    12.330651095     0.592098563
 C       -6.830483125    12.901982638    -0.097608208
 C       -8.245174035    12.795507561     0.267727466
 C       -9.199403228    13.439797800    -0.534917934
 C      -10.549014727    13.369483939    -0.232187734
 C      -10.987397998    12.617582258     0.876432063
 C      -10.037509605    11.975505258     1.683842184
 C       -8.682875610    12.084449566     1.387414530
 N      -12.383460961    12.589555291     1.127629754
 C      -13.194523625    11.966100083     0.062061925
 C      -12.785573226    12.194236225     2.485868966
 C      -13.378502163    10.440746947     0.142127309
 C      -12.090493968     9.625037362    -0.076004989
 N      -11.626437585     9.524537771    -1.468837943
 C      -12.549561135     9.116562671    -2.440009531
 C      -13.528271165     8.152358128    -2.109079619
 C      -14.449451284     7.736258896    -3.055218099
 C      -14.408212707     8.220002865    -4.371169413
 C      -13.420409098     9.150477605    -4.704552936
 C      -12.497998955     9.591969478    -3.765089410
 C      -10.628848446    10.529732943    -1.856667983
 C      -15.406946699     7.745764453    -5.329479587
 C      -15.467749210     8.135475356    -6.610232109
Si      -16.715804536     7.542388830    -7.806427553
 C      -17.275691916     5.830880392    -7.428396063
 C      -16.379754367     4.916340259    -6.858842555
 C      -16.787285455     3.617610410    -6.566656197
 C      -18.093615381     3.195932732    -6.847528084
 C      -18.982340724     4.107417856    -7.424044688
 C      -18.578370366     5.410224879    -7.714272977
 C      -18.473419713     1.824932792    -6.522950613
 C      -19.690497066     1.296901044    -6.736405716
 C      -20.070145765    -0.074106240    -6.411776670
 C      -19.182447010    -0.986239009    -5.835374519
 C      -19.587932928    -2.288075667    -5.541344935
 C      -20.891627665    -2.707670668    -5.823336816
 C      -21.784004023    -1.794880131    -6.402095145
 C      -21.377650985    -0.494963662    -6.690012269
Si      -21.443286335    -4.421993696    -5.441827513
 C      -20.001543962    -5.531402685    -5.029002283
 C      -22.635104198    -4.391331788    -3.957932650
 C      -22.379687918    -5.095984327    -6.956008712
 C      -18.198001625     8.735455519    -7.790570141
 C      -15.938612208     7.558343671    -9.542904205
 C       -3.191561432    13.500196454     1.498762134
 C       -3.775117849    13.208993938    -1.523829952
 C       -0.658536937    -0.899313307    -1.543043976
 C       -0.608501640    -0.927011559     1.547056866
 H        1.213059872     2.710923003     0.436632074
 H        0.275472090     4.950687305     0.429132057
 H       -3.630857551     3.358988952    -0.426199259
 H       -2.733653627     1.098923760    -0.436966967
 H       -3.418403078     5.671069362    -0.209733477
 H       -0.593069415     6.781166618     0.399358673
 H       -0.383010952     9.095905966     0.606375370
 H       -1.283940274    11.356878958     0.602926110
 H       -5.237114117     9.729724878    -0.222485156
 H       -4.288119550     7.493133955    -0.235472913
 H       -6.038584872    11.741518988     1.502705745
 H       -6.661212899    13.499600709    -1.002649416
 H       -8.874859071    14.016163521    -1.401782517
 H      -11.277235037    13.905522414    -0.838007223
 H      -10.347407631    11.396659742     2.548801654
 H       -7.958644302    11.589205090     2.036372255
 H      -13.868842666    12.374235882     2.602392339
 H      -12.267965107    12.841120613     3.216997285
 H      -12.577317962    11.142899516     2.738123823
 H       -9.938944587    10.726586913    -1.014633565
 H      -11.067080547    11.492384750    -2.166167840
 H      -10.014222257    10.130079508    -2.684321549
 H      -13.560217816     7.730898625    -1.108993986
 H      -15.208877487     7.005385555    -2.773615338
 H      -13.365504751     9.541366623    -5.721592476
 H      -11.749631094    10.317826543    -4.065154072
 H      -16.111156226     7.020953177    -4.896148143
 H      -14.755664585     8.868853477    -7.017453345
 H      -15.345316090     5.188805850    -6.622061430
 H      -16.079594769     2.923153481    -6.117680458
 H      -20.002345277     3.805247225    -7.653190585
 H      -19.317786410     6.077214669    -8.165561092
 H      -17.676528137     1.223113912    -6.076044532
 H      -20.487507444     1.898054775    -7.183609023
 H      -18.160872311    -0.685795750    -5.609410999
 H      -18.848601811    -2.955786738    -5.090491512
 H      -22.814881740    -2.067228691    -6.645658076
 H      -22.085334200     0.199600009    -7.138569449
 H      -14.197869228    12.455575855     0.108328755
 H      -12.766254012    12.236547128    -0.928970458
 H      -13.818859051    10.163057907     1.118094173
 H      -14.137776213    10.142148452    -0.612231821
 H      -11.265347449    10.040305781     0.547163565
 H      -12.248116502     8.582675708     0.294068866
 H        2.263162662    -1.030036249    -0.035215690
 H        2.274420275     0.483464985     0.904434305
 H        2.262031186     0.538478821    -0.879767538
 H      -20.336905921    -6.566953973    -4.840716982
 H      -19.465274657    -5.186646855    -4.127516794
 H      -19.275893442    -5.564407787    -5.861895474
 H      -22.880928348    -5.471434104    -3.742760189
 C      -21.990464435    -3.788095198    -2.696353942
 C      -23.954592222    -3.650572117    -4.239522789
 H      -23.256764107    -4.402387840    -7.110955651
 C      -21.526210889    -5.068471989    -8.236883737
 C      -22.933804822    -6.517383425    -6.752788730
 H      -18.909403916     8.362953749    -8.582985346
 C      -18.937964566     8.729461062    -6.440855677
 C      -17.813792526    10.183892956    -8.142568332
 H      -15.620917139     8.623829202    -9.733329602
 C      -14.688498852     6.664273728    -9.628961903
 C      -16.924446945     7.147502497   -10.650392417
 H       -2.106499565    13.552677242     1.192827639
 C       -3.739388131    14.937048540     1.555713803
 C       -3.259181054    12.880278115     2.905764205
 H       -4.321377634    14.196340993    -1.509523751
 C       -2.292925439    13.488489477    -1.829533838
 C       -4.361610155    12.353109239    -2.661709481
 H       -1.783358090    -0.896056332    -1.446116675
 C       -0.296996707    -0.169458969    -2.849355487
 C       -0.198671960    -2.364621075    -1.643050888
 H       -0.104205953    -1.936074924     1.514625607
 C       -0.193071351    -0.227599579     2.854484751
 C       -2.130131926    -1.156898233     1.573516174
 H      -21.083202581    -4.315763595    -2.375152432
 H      -22.692326979    -3.842195366    -1.851812744
 H      -21.733240201    -2.725613717    -2.814742901
 H      -24.522297836    -4.074956932    -5.077175679
 H      -23.808450309    -2.579439377    -4.437885925
 H      -24.613836105    -3.711030690    -3.361243955
 H      -21.136494720    -4.068812185    -8.477194956
 H      -22.132038264    -5.377108644    -9.100698561
 H      -20.671068694    -5.756137345    -8.197671506
 H      -23.614554671    -6.599990906    -5.895697302
 H      -22.145030558    -7.270948801    -6.627615919
 H      -23.513344352    -6.823866963    -7.635785822
 H      -19.297388709     7.734308722    -6.144099155
 H      -19.825912873     9.374724301    -6.493221826
 H      -18.322768653     9.116875973    -5.615654881
 H      -17.350225988    10.283263375    -9.132279248
 H      -17.134662099    10.636303273    -7.406340433
 H      -18.712619255    10.816928024    -8.160244943
 H      -13.909228010     6.932811258    -8.902459307
 H      -14.227937213     6.754109170   -10.622908572
 H      -14.916390665     5.597333420    -9.491814838
 H      -17.805053452     7.799233957   -10.713870215
 H      -17.280565415     6.112723111   -10.543892320
 H      -16.431712371     7.201374854   -11.631991311
 H       -3.644655111    15.477196025     0.604842775
 H       -3.180838249    15.523847487     2.299143244
 H       -4.794945667    14.981580531     1.859935459
 H       -2.849414768    11.861404705     2.953654827
 H       -4.280082308    12.846925115     3.310280844
 H       -2.668092313    13.481711306     3.611247582
 H       -1.824677518    14.181809912    -1.119204311
 H       -2.194913756    13.954296629    -2.821044497
 H       -1.682301900    12.574899575    -1.860956473
 H       -5.432827969    12.139875239    -2.545210707
 H       -3.845759216    11.388617178    -2.777568951
 H       -4.252879551    12.876302813    -3.622163921
 H       -0.645593577     0.873029616    -2.874357467
 H       -0.770259293    -0.671391653    -3.705330451
 H        0.781880203    -0.162579010    -3.053167533
 H       -0.486102061    -2.970757163    -0.774250119
 H        0.886583589    -2.464756056    -1.776736624
 H       -0.660988041    -2.843953308    -2.518280078
 H        0.892165925    -0.096876366     2.953967626
 H       -0.510607610    -0.826948611     3.719783825
 H       -0.659835727     0.760390651     2.976865989
 H       -2.500763552    -1.722363419     0.709230599
 H       -2.701991938    -0.220379197     1.635704819
 H       -2.405654274    -1.742217448     2.462998645

