187   

Si        0.000000000     0.000000000     0.000000000
 C        1.865043635     0.000000000     0.000000000
 C       -0.679687406     1.710849238     0.000000000
 C        0.103039267     2.794275813    -0.411997624
 C       -0.418326592     4.087862430    -0.409467926
 C       -1.733209537     4.327457388    -0.001657954
 C       -2.517855900     3.240183873     0.405565191
 C       -2.000209788     1.947841637     0.404590077
 C       -2.321056043     5.662800503     0.017554149
 C       -1.680337413     6.786771084    -0.345931484
 C       -2.268970280     8.121804272    -0.326415305
 C       -3.584259577     8.359335958     0.081804532
 C       -4.107209658     9.652156655     0.084965625
 C       -3.328864261    10.734615081    -0.337082733
 C       -2.010516532    10.499265828    -0.749795708
 C       -1.487343434     9.209260680    -0.738813622
Si       -3.991531312    12.450777341    -0.343895335
 C       -3.308446241    13.433236862    -1.726820353
 C       -2.933754063    12.910135094    -2.902159048
 C       -2.386337179    13.687990875    -4.014138849
 C       -2.030995969    13.022618885    -5.195209932
 C       -1.508208787    13.711153053    -6.278477168
 C       -1.373261168    15.115210573    -6.236824995
 C       -1.734011286    15.784496224    -5.050275238
 C       -2.208538037    15.073297627    -3.956567102
 N       -0.843934208    15.822264231    -7.331048016
 C       -0.904122597    15.178521889    -8.654120735
 C       -1.130394573    17.266567951    -7.386888016
 C       -2.338482574    14.987667072    -9.173628928
 C       -2.343621128    14.075471957   -10.411079335
 N       -3.686746718    13.881061365   -10.982126417
 C       -4.324119193    14.999828162   -11.546182711
 C       -3.567244975    16.074161951   -12.060965661
 C       -4.198060531    17.175928122   -12.616512044
 C       -5.593917745    17.233088601   -12.730689879
 C       -6.341284522    16.154425850   -12.249556618
 C       -5.726501010    15.051539060   -11.672428907
 C       -4.522477282    12.974958174   -10.175299347
 C       -6.207709298    18.420933663   -13.325487981
 C       -7.527722597    18.586349262   -13.485621310
Si       -8.291663121    20.071454728   -14.229052478
 C       -7.284563305    21.581342462   -13.928703617
 C       -6.601197079    21.725628878   -12.713609494
 C       -5.833569225    22.860304014   -12.466083192
 C       -5.738636038    23.883492570   -13.418809736
 C       -6.427445343    23.740189096   -14.626214420
 C       -7.193885577    22.602890836   -14.879108759
 C       -4.921745062    25.053514859   -13.113662194
 C       -4.744575223    26.098844700   -13.939335800
 C       -3.928061315    27.269418714   -13.635559224
 C       -3.238161341    27.415749507   -12.429397911
 C       -2.468785616    28.552468844   -12.181154841
 C       -2.377263261    29.571469349   -13.134328703
 C       -3.068344971    29.427032896   -14.345026595
 C       -3.831229524    28.289234748   -14.591967183
Si       -1.366296353    31.078133978   -12.822595419
 C       -0.868314115    31.212134732   -11.029927607
 C        0.207444312    31.018097015   -13.891763739
 C       -2.390003778    32.598472637   -13.336661889
 C       -8.505380741    19.779899081   -16.097156725
 C      -10.010119564    20.317107759   -13.450837572
 C       -5.888734033    12.428110654    -0.483120134
 C       -3.509688714    13.297903857     1.289926482
 C       -0.622827658    -0.914352873    -1.548859675
 C       -0.650646326    -0.914413609     1.538124947
 H        1.138435365     2.669468603    -0.740926191
 H        0.212915842     4.914328740    -0.730908757
 H       -3.544764092     3.404635881     0.726439738
 H       -2.660250267     1.139704453     0.731952509
 H       -3.359349992     5.700290223     0.360067876
 H       -0.641915662     6.749634248    -0.688088388
 H       -4.213085873     7.532426561     0.406098304
 H       -5.139551371     9.775792438     0.423174316
 H       -1.355854453    11.309588622    -1.088882299
 H       -0.459793173     9.046230054    -1.058544925
 H       -3.238244402    14.513923787    -1.533268474
 H       -3.003127397    11.834773121    -3.121509793
 H       -2.154550915    11.940619486    -5.262461173
 H       -1.213781448    13.154523883    -7.162877909
 H       -1.631975520    16.861994378    -4.970201767
 H       -2.461716947    15.615118653    -3.043939924
 H       -0.749483894    17.696620500    -8.328130451
 H       -0.594368176    17.773506058    -6.564015916
 H       -2.205353769    17.500116558    -7.311138126
 H       -3.903402678    12.176248746    -9.733495103
 H       -5.259158374    12.480233590   -10.834038307
 H       -5.059145893    13.486616047    -9.359107610
 H       -2.482500202    16.053441556   -12.018400509
 H       -3.592775199    18.005916333   -12.984290548
 H       -7.429606931    16.171290796   -12.326568415
 H       -6.345542634    14.235090308   -11.314930578
 H       -5.473445154    19.182128762   -13.626057762
 H       -8.241811300    17.804833265   -13.185559688
 H       -6.641416930    20.959356067   -11.931908741
 H       -5.304548178    22.952227995   -11.519510965
 H       -6.370984770    24.520133760   -15.383153258
 H       -7.709775571    22.548471387   -15.841584561
 H       -4.440419214    25.032150353   -12.131590625
 H       -5.226358427    26.120108847   -14.921285587
 H       -3.296111512    26.638668629   -11.669520896
 H       -1.951654221    28.610071796   -11.219385713
 H       -3.034032623    30.191106926   -15.126851644
 H       -4.359318910    28.194400034   -15.538873542
 H       -0.311842425    15.795150268    -9.368291192
 H       -0.370175650    14.202215716    -8.593581884
 H       -2.979741478    14.556238784    -8.379995917
 H       -2.794697830    15.966551320    -9.415636789
 H       -1.674949652    14.481629595   -11.204003622
 H       -1.928061436    13.073133054   -10.156864978
 H        2.262725910    -1.028998314     0.058085189
 H        2.259986993     0.558295431     0.868438605
 H        2.276140603     0.464095034    -0.913437153
 H       -0.299112479    32.140318227   -10.843133242
 H       -0.233985979    30.364514109   -10.716730087
 H       -1.756704426    31.230155499   -10.372699036
 H        0.803933438    31.932716800   -13.607324071
 C        1.069927009    29.776044658   -13.601179608
 C       -0.070249170    31.081847140   -15.404283711
 H       -2.610140815    32.465353301   -14.435883521
 C       -3.736109026    32.680656849   -12.594266091
 C       -1.639820470    33.931211188   -13.164540304
 H       -9.011318525    20.703101468   -16.502630678
 C       -7.156682688    19.614287925   -16.820282923
 C       -9.397361882    18.568749245   -16.423562649
 H      -10.588847674    19.373742539   -13.669686120
 C       -9.939845797    20.490744254   -11.922973533
 C      -10.782466566    21.503173308   -14.053996096
 H       -6.261738846    11.854091783     0.413669585
 C       -6.516651741    13.832776119    -0.441723653
 C       -6.372858380    11.703460892    -1.751955702
 H       -3.943175858    14.338283893     1.241724076
 C       -4.090033280    12.594505193     2.529069493
 C       -1.984248010    13.422716308     1.453766729
 H       -0.145244219    -1.935926601    -1.515127670
 C       -2.150418786    -1.101936962    -1.574235544
 C       -0.187972019    -0.226956699    -2.856140742
 H       -1.775318643    -0.922393300     1.441465404
 C       -0.177096159    -2.376083601     1.629082801
 C       -0.295272667    -0.189742551     2.848989455
 H        1.385145339    29.698956906   -12.552672069
 H        1.993016090    29.810625511   -14.197491356
 H        0.567214673    28.835142018   -13.867500934
 H       -0.621084238    31.980372786   -15.709725280
 H       -0.621490346    30.205577588   -15.773530035
 H        0.879014895    31.101586352   -15.959422179
 H       -4.354713117    31.779974009   -12.716475038
 H       -4.332192624    33.517373213   -12.985584648
 H       -3.622098891    32.859690184   -11.516920147
 H       -0.697860963    33.975751410   -13.726320432
 H       -1.414964046    34.163872131   -12.115221028
 H       -2.258765891    34.760601045   -13.536803801
 H       -6.476660823    20.465840054   -16.679902190
 H       -7.317221121    19.523570747   -17.903659990
 H       -6.616277307    18.707346488   -16.511470436
 H      -10.410864415    18.649634521   -16.010680821
 H       -8.968863186    17.617114560   -16.078793333
 H       -9.517210405    18.473644464   -17.512489080
 H       -9.448288086    19.652456877   -11.410594999
 H      -10.953974902    20.556367035   -11.504018861
 H       -9.423307570    21.413456440   -11.621541620
 H      -10.953123140    21.408591996   -15.133961903
 H      -10.289259975    22.469742052   -13.876693265
 H      -11.777453435    21.578520454   -13.591867609
 H       -6.278564314    14.390548070     0.472907195
 H       -7.612945158    13.755022173    -0.476075312
 H       -6.226765402    14.455257495    -1.299917522
 H       -6.013123307    10.668070593    -1.828722109
 H       -6.081720397    12.222480619    -2.676816549
 H       -7.470481659    11.649748407    -1.760914765
 H       -5.186611321    12.551784460     2.532537119
 H       -3.801442126    13.138541947     3.440181679
 H       -3.714769940    11.568610854     2.654393562
 H       -1.499277443    13.963258354     0.629386697
 H       -1.484442682    12.448077747     1.551159374
 H       -1.747723098    13.981486905     2.370341508
 H       -2.533130437    -1.674921235    -0.720186044
 H       -2.445310813    -1.660705165    -2.474387488
 H       -2.697251986    -0.149102317    -1.613400747
 H        0.900474961    -0.127072538    -2.955579517
 H       -0.627350986     0.773464834    -2.978982399
 H       -0.522092700    -0.817434939    -3.721316223
 H       -0.456178119    -2.978909805     0.755296020
 H       -0.637475952    -2.865979639     2.499462927
 H        0.908693104    -2.466963383     1.765296959
 H       -0.650842780     0.850143253     2.880520410
 H        0.783691512    -0.175980779     3.052847650
 H       -0.764522096    -0.700783195     3.701704621

