187   

Si        0.000000000     0.000000000     0.000000000
 C        1.865634834     0.000000000     0.000000000
 C       -0.617762928     1.736088499     0.000000000
 C       -0.142623383     2.635017146    -0.963290589
 C       -0.592461466     3.954153279    -0.986988609
 C       -1.504018731     4.416186004    -0.032817842
 C       -1.977440232     3.516685749     0.930645814
 C       -1.550400249     2.190722533     0.939256183
 C       -2.002260778     5.787337376    -0.018305198
 C       -1.649340028     6.737728955    -0.899577884
 C       -2.147308920     8.108952406    -0.885446590
 C       -1.690707174     8.994148387    -1.869516254
 C       -2.134211297    10.313576049    -1.901431631
 C       -3.074481662    10.776275504    -0.973253505
 C       -3.541390446     9.887361468     0.002549776
 C       -3.079248958     8.572689405     0.046788823
Si       -3.661609436    12.517392529    -1.013119034
 C       -5.474194045    12.737634179    -1.101797340
 C       -6.435641505    11.941466131    -0.618611466
 C       -7.864851631    12.243352891    -0.763002544
 C       -8.810683049    11.356502684    -0.227490559
 C      -10.169747588    11.608210962    -0.344258351
 C      -10.610909815    12.767787203    -0.999395159
 C       -9.677952330    13.655885880    -1.543535946
 C       -8.318372451    13.383811610    -1.431710313
 N      -12.034802132    12.949012970    -1.074496137
 C      -12.544018168    13.678691902     0.109698304
 C      -12.497563535    13.520644416    -2.351811922
 C      -12.216188119    15.185648361     0.141589737
 C      -12.218937185    15.753974346     1.573902270
 N      -10.892693552    15.821516331     2.225562457
 C      -10.301925370    14.557358591     2.491440723
 C      -11.011221867    13.671150541     3.326274635
 C      -10.486044606    12.424117285     3.621791034
 C       -9.233204939    12.032271683     3.126853167
 C       -8.518800237    12.929281121     2.329840211
 C       -9.031578728    14.186365555     2.028539499
 C      -10.007348777    16.822503423     1.605061154
 C       -8.728497191    10.702324918     3.471946524
 C       -7.551349894    10.210493864     3.064355508
Si       -6.912360482     8.550686790     3.490122813
 C       -6.359831766     7.692164094     1.960298193
 C       -6.640250848     8.224444889     0.696817567
 C       -6.218824071     7.569019469    -0.457134805
 C       -5.555447810     6.338654306    -0.376203156
 C       -5.292536230     5.799688072     0.887607661
 C       -5.681691479     6.471241905     2.044745132
 C       -5.130648421     5.685263270    -1.608922533
 C       -4.457803684     4.523529295    -1.651516561
 C       -4.022887689     3.851638995    -2.869335431
 C       -4.268743224     4.361925521    -4.145811177
 C       -3.830875896     3.679451199    -5.281163319
 C       -3.130212236     2.475971128    -5.159165639
 C       -2.877267824     1.966579332    -3.878495388
 C       -3.316376542     2.647707759    -2.748524163
Si       -2.538711060     1.550695695    -6.634709247
 C       -2.808615123     2.512844321    -8.209212434
 C       -0.685848219     1.196848223    -6.374352358
 C       -3.459803025    -0.109862987    -6.770782735
 C       -5.398921670     8.759366499     4.624086544
 C       -8.240334980     7.518544118     4.371663644
 C       -3.057742376    13.379982182     0.581016306
 C       -2.973262306    13.512647577    -2.487168409
 C       -0.628754695    -0.920706415    -1.543132283
 C       -0.655744890    -0.928997644     1.527690583
 H        0.585446081     2.339331778    -1.724783638
 H       -0.223389256     4.627220067    -1.759114824
 H       -2.686325341     3.853680200     1.684393892
 H       -1.970188507     1.533529541     1.705245678
 H       -2.704626241     6.014986539     0.790070293
 H       -0.949702220     6.512991003    -1.710266604
 H       -0.976376722     8.652087876    -2.615734916
 H       -1.727805338    10.955501865    -2.688422825
 H       -4.288569453    10.179279157     0.748683837
 H       -3.468794275     7.899173108     0.811690908
 H       -5.742991443    13.678932551    -1.615642447
 H       -6.227910463    10.995923172    -0.103145144
 H       -8.482929428    10.455428899     0.295421342
 H      -10.903434301    10.916855277     0.069873797
 H      -10.007362064    14.549636774    -2.064494891
 H       -7.605770282    14.081576256    -1.871554973
 H      -13.598724630    13.454040822    -2.383346626
 H      -12.104998007    12.905521562    -3.180647474
 H      -12.207013745    14.566225191    -2.527454358
 H      -10.526377021    17.796083777     1.586308296
 H       -9.690039264    16.578027783     0.579181206
 H       -9.107520166    16.947017331     2.234244533
 H      -11.970087032    13.972478417     3.740946852
 H      -11.053784621    11.743579552     4.256131048
 H       -7.537533265    12.652984182     1.935873817
 H       -8.451470493    14.852722382     1.396743061
 H       -9.424791419    10.132428827     4.101635826
 H       -6.865869187    10.811549271     2.444063630
 H       -7.187523033     9.164847384     0.572013639
 H       -6.417010252     8.014541327    -1.431297997
 H       -4.788892481     4.838271937     0.975314615
 H       -5.436109101     6.006777566     3.003317107
 H       -5.393106289     6.215725168    -2.527882125
 H       -4.186693889     4.002222533    -0.726257013
 H       -4.806964204     5.300569222    -4.263664070
 H       -4.054377315     4.124106997    -6.253988987
 H       -2.331765811     1.029825971    -3.723267026
 H       -3.095115370     2.247953764    -1.757878337
 H      -13.644555488    13.523896673     0.142382920
 H      -12.126891256    13.176500572     1.015100718
 H      -11.227755986    15.361528831    -0.325211246
 H      -12.941478579    15.738153651    -0.481227148
 H      -12.634745160    16.787617570     1.569002038
 H      -12.897706035    15.161308799     2.226809276
 H        2.266489124    -1.028547087     0.010823457
 H        2.257840994     0.520236463     0.893108904
 H        2.275684319     0.512190643    -0.887857967
 H       -2.428760730     1.958769257    -9.085787653
 H       -2.281452310     3.483451500    -8.176830691
 H       -3.879855764     2.716865022    -8.383237535
 H       -0.626381146     0.538787141    -5.458235133
 C       -0.033593442     0.437207377    -7.542136326
 C        0.125624625     2.472912597    -6.085855840
 H       -3.107675097    -0.571638171    -7.738184614
 C       -3.146960670    -1.098748140    -5.633089739
 C       -4.986395114     0.072932070    -6.855390261
 H       -5.054428551     7.714481327     4.873836357
 C       -4.234978613     9.489241810     3.929580442
 C       -5.730573192     9.481119829     5.941205239
 H       -8.618176595     8.161078747     5.219507842
 C       -9.430082419     7.191102425     3.450111098
 C       -7.711198231     6.206869904     4.978057786
 H       -1.932640319    13.302044137     0.555628041
 C       -3.436889924    14.871174576     0.632714701
 C       -3.553966050    12.703167621     1.870421781
 H       -3.440422606    14.537490139    -2.387211686
 C       -1.447309053    13.704399385    -2.471334058
 C       -3.404962272    12.940772569    -3.849028797
 H       -0.249239513    -1.978387338    -1.432541870
 C       -2.164140265    -0.974240549    -1.630340741
 C       -0.066604465    -0.358424649    -2.860450596
 H       -1.773136953    -0.768845474     1.532024845
 C       -0.402625985    -2.447326366     1.482532580
 C       -0.088359291    -0.378019292     2.849159532
 H       -0.517523199    -0.523501782    -7.760355855
 H        1.014343861     0.206278457    -7.302041414
 H       -0.013108243     1.019029514    -8.473116810
 H       -0.253317670     3.040727149    -5.223276049
 H        0.163323148     3.159331098    -6.941683576
 H        1.167547382     2.212810700    -5.852156864
 H       -2.079981696    -1.337749817    -5.543541157
 H       -3.660342279    -2.053888319    -5.815884270
 H       -3.499674404    -0.744875854    -4.653770342
 H       -5.305313267     0.698471638    -7.699007082
 H       -5.415669446     0.506649738    -5.940353055
 H       -5.476440351    -0.901197236    -6.993831322
 H       -3.906442803     9.000051375     3.001025078
 H       -3.356299488     9.509174424     4.589959372
 H       -4.467332400    10.537541949     3.695184641
 H       -6.500021169     8.972769462     6.536126776
 H       -6.060658517    10.518975781     5.789246321
 H       -4.836438798     9.533466438     6.578762327
 H       -9.903719724     8.079288200     3.009012195
 H      -10.215033582     6.670972123     4.016567266
 H       -9.154924462     6.521936139     2.621873369
 H       -6.898219881     6.355388500     5.699955960
 H       -7.362840907     5.494236347     4.217751801
 H       -8.516664464     5.695956887     5.526017961
 H       -3.057194261    15.451000705    -0.217584419
 H       -3.005960162    15.336511570     1.531232251
 H       -4.522476680    15.032933299     0.693685985
 H       -3.183914266    11.674315149     1.983809899
 H       -4.649881122    12.685594293     1.954649213
 H       -3.186949079    13.253199660     2.748920703
 H       -1.087727573    14.224405839    -1.573366158
 H       -1.136813612    14.320403735    -3.327776146
 H       -0.885679980    12.764340579    -2.552247115
 H       -4.494777553    12.841829346    -3.953242822
 H       -2.968035921    11.956548826    -4.065787274
 H       -3.077470860    13.607267181    -4.659492290
 H       -2.629641651    -1.478958807    -0.773990981
 H       -2.472962006    -1.538908614    -2.522230273
 H       -2.626788649     0.019704925    -1.716476534
 H        1.029019645    -0.394123293    -2.914470967
 H       -0.374477873     0.680562587    -3.050909006
 H       -0.432962802    -0.955199354    -3.708976073
 H       -0.877645497    -2.940916833     0.624926080
 H       -0.822451469    -2.924431510     2.380200043
 H        0.664336675    -2.705588140     1.469214142
 H       -0.226169975     0.704714830     2.973055880
 H        0.983428960    -0.587061416     2.969948213
 H       -0.593370555    -0.852223357     3.702783174

