187   

Si        0.000000000     0.000000000     0.000000000
 C        1.865932380     0.000000000     0.000000000
 C       -0.667916793     1.714578148     0.000000000
 C        0.168795762     2.805915285    -0.251523121
 C       -0.342558242     4.102378111    -0.250264407
 C       -1.692809673     4.343128141     0.011408163
 C       -2.529556670     3.248032929     0.265167939
 C       -2.025492761     1.949811412     0.256438808
 C       -2.257426831     5.688155952     0.019817674
 C       -1.562051505     6.814170718    -0.216411749
 C       -2.132372181     8.156937154    -0.206630806
 C       -3.486466322     8.383293526     0.057010487
 C       -4.003013328     9.676226593     0.059637271
 C       -3.173272186    10.774439806    -0.199799430
 C       -1.817655938    10.552486844    -0.465274043
 C       -1.305270987     9.255972965    -0.470354702
Si       -3.916472902    12.454736173    -0.181554792
 C       -2.679200164    13.787456462     0.000128156
 C       -2.608586100    14.867168588    -0.789109414
 C       -1.622484745    15.939736614    -0.652590806
 C       -1.677479429    17.008972080    -1.559718399
 C       -0.775549830    18.056159471    -1.487571677
 C        0.241717552    18.049700053    -0.509252950
 C        0.302352330    16.978231455     0.398369858
 C       -0.626841826    15.946557721     0.327490533
 N        1.135609543    19.135719783    -0.474127022
 C        1.677350146    19.608224658    -1.761825705
 C        2.094229166    19.192416445     0.635267261
 C        2.071714401    18.502098191    -2.758649819
 C        3.564493548    18.445870700    -3.121874297
 N        4.489613118    17.909832841    -2.107318434
 C        4.085430173    16.757389083    -1.410451490
 C        3.412310275    15.729593252    -2.107132060
 C        3.003980887    14.584888993    -1.443870951
 C        3.249350197    14.415091589    -0.072849826
 C        3.944033169    15.417888822     0.605993784
 C        4.386175230    16.560196625    -0.050155756
 C        5.222881904    18.926818598    -1.339921887
 C        2.797522798    13.186802314     0.581926552
 C        2.979446851    12.922999397     1.882986832
Si        2.426130068    11.398518819     2.726709151
 C        2.413186153     9.957723561     1.582182094
 C        3.256261918     9.956524683     0.464589667
 C        3.265623319     8.877976604    -0.417410792
 C        2.466388476     7.756671447    -0.180858592
 C        1.636855870     7.751035007     0.948468054
 C        1.606911404     8.838220302     1.819023906
 C        2.449393368     6.609300252    -1.080706386
 C        3.193238025     6.489787726    -2.193593226
 C        3.169030258     5.336718610    -3.088166337
 C        2.350537539     4.226753858    -2.862378949
 C        2.353860154     3.143431790    -3.738469868
 C        3.180757422     3.145804930    -4.867708107
 C        4.005158455     4.254267241    -5.095614772
 C        4.001505195     5.333594439    -4.214425647
Si        3.163872349     1.700116461    -6.007684259
 C        1.424390072     1.066973957    -6.235944686
 C        3.905461912     2.183072187    -7.692018607
 C        4.245248963     0.326248568    -5.252664109
 C        3.621488544    11.035877154     4.160002619
 C        0.687593813    11.684974550     3.443468614
 C       -4.923271100    12.685646486    -1.779827486
 C       -5.092517332    12.578149517     1.313646579
 C       -0.596172528    -0.894504974    -1.571532017
 C       -0.668736378    -0.914358075     1.526417160
 H        1.238814093     2.681652279    -0.446671401
 H        0.325435326     4.941330203    -0.447389049
 H       -3.585670975     3.409822598     0.470155449
 H       -2.726152427     1.135446454     0.459314241
 H       -3.326521213     5.731442615     0.244667132
 H       -0.494269559     6.775942637    -0.456034424
 H       -4.151016540     7.546736446     0.262946652
 H       -5.069952077     9.787481710     0.273186815
 H       -1.127346653    11.375669350    -0.677438931
 H       -0.244819031     9.099143043    -0.674382697
 H       -1.979417351    13.645850433     0.839498366
 H       -3.299717661    15.032475803    -1.627416320
 H       -2.447615716    17.023770473    -2.330937956
 H       -0.850906347    18.886304838    -2.183428841
 H        1.089967250    16.928276883     1.144525075
 H       -0.556220438    15.122510093     1.039968484
 H        2.520520880    20.210415759     0.673926908
 H        2.905976092    18.450460471     0.559577571
 H        1.563647429    19.034554722     1.592335115
 H        6.215022526    18.518745245    -1.071616832
 H        4.707558546    19.247667775    -0.418881634
 H        5.385491819    19.827798952    -1.950836184
 H        3.222127042    15.830611953    -3.172056653
 H        2.478080345    13.805611459    -1.998728158
 H        4.161891085    15.305007113     1.669254207
 H        4.956428497    17.294723180     0.508001272
 H        2.280104137    12.497356489    -0.100592690
 H        3.483680536    13.644255548     2.544207150
 H        3.928375935    10.792281792     0.241192460
 H        3.914495846     8.913125692    -1.290254962
 H        1.013547265     6.883602684     1.162914765
 H        0.932028926     8.780638637     2.677888520
 H        1.773184081     5.802127261    -0.778688821
 H        3.877358523     7.287727218    -2.495142229
 H        1.687779543     4.203392691    -1.999150976
 H        1.684180453     2.308286215    -3.507808252
 H        4.673355259     4.312434695    -5.958844299
 H        4.651517667     6.183957987    -4.410216841
 H        0.890479529    20.257021959    -2.217307084
 H        2.543655998    20.277094488    -1.567938058
 H        1.747512961    17.511828319    -2.368821896
 H        1.489478926    18.628311411    -3.692542018
 H        3.685723685    17.797027119    -4.026757223
 H        3.914182166    19.455732928    -3.431754719
 H        2.262140883    -1.029524349     0.056753657
 H        2.263067501     0.555026960     0.869491317
 H        2.278470865     0.465129183    -0.913447057
 H        1.399610055     0.212885021    -6.935268683
 H        0.771492681     1.857060106    -6.651182585
 H        0.976445718     0.733803043    -5.283002820
 H        4.939468386     2.580391561    -7.474648148
 C        4.055609354     0.994466333    -8.659101204
 C        3.106426325     3.296035371    -8.394425027
 H        4.213187422    -0.528845984    -5.987672009
 C        5.714402665     0.750280817    -5.075541170
 C        3.712450719    -0.187512571    -3.902661309
 H        3.571412079    11.930846551     4.844523772
 C        3.230917072     9.789859056     4.973773164
 C        5.075771058    10.882373726     3.679228343
 H        0.469618773    10.793531674     4.099438215
 C        0.595685352    12.952652359     4.312178885
 C       -0.392326919    11.750820451     2.351881390
 H       -5.292846792    13.751681034    -1.762860950
 C       -4.063548037    12.493145659    -3.042720599
 C       -6.150848038    11.762337386    -1.873871595
 H       -5.886363323    11.793330557     1.153628042
 C       -4.383259182    12.272025045     2.645370829
 C       -5.789849101    13.945483910     1.417995544
 H       -0.077490723    -1.896300038    -1.567765448
 C       -2.114101579    -1.145048421    -1.601426665
 C       -0.193925633    -0.150741924    -2.858545789
 H       -1.793097204    -0.904647385     1.424997574
 C       -0.216404285    -2.383094577     1.609647208
 C       -0.309662824    -0.202918564     2.843625105
 H        4.691066389     0.190987167    -8.264787154
 H        4.529449368     1.328820299    -9.593606609
 H        3.093355189     0.550093407    -8.945721396
 H        2.978884679     4.198633556    -7.780404621
 H        2.106063909     2.969330323    -8.709227888
 H        3.628085492     3.616229062    -9.307606107
 H        6.199126711     1.047290728    -6.014320275
 H        6.304101101    -0.088961534    -4.679420060
 H        5.837375873     1.576509047    -4.360622928
 H        2.704418677    -0.617575154    -3.971310724
 H        3.699669722     0.588698594    -3.123978998
 H        4.361084227    -0.990512964    -3.523823112
 H        2.237381846     9.863156529     5.434185059
 H        3.941116999     9.642538551     5.800360343
 H        3.257796623     8.864796843     4.379934966
 H        5.450247111    11.758354458     3.132297981
 H        5.221703729    10.003044951     3.035340144
 H        5.745679340    10.746481347     4.540039278
 H        1.295056007    12.956267041     5.156941872
 H       -0.410225239    13.035302467     4.748847557
 H        0.759541378    13.875507964     3.737454027
 H       -0.466907565    10.826630480     1.758214808
 H       -0.243488064    12.583730712     1.649826117
 H       -1.383202522    11.894858749     2.806894969
 H       -3.179511345    13.144556969    -3.077615928
 H       -4.653592958    12.723920135    -3.940482616
 H       -3.711928258    11.457996676    -3.163363597
 H       -6.864423569    11.900193685    -1.051847327
 H       -5.882933240    10.697033476    -1.913581529
 H       -6.706684685    11.970621447    -2.799678997
 H       -3.894692905    11.287431539     2.661197234
 H       -5.113476785    12.264267874     3.466975047
 H       -3.629242207    13.025810114     2.910974130
 H       -6.389112757    14.196842887     0.533528128
 H       -5.085657733    14.772956930     1.588008545
 H       -6.483406614    13.951265288     2.270648722
 H       -2.474790147    -1.743008267    -0.755083742
 H       -2.384822285    -1.705579327    -2.508079898
 H       -2.700210097    -0.215754159    -1.631044446
 H        0.889540887     0.009488161    -2.945738046
 H       -0.686481817     0.828057071    -2.955823163
 H       -0.493644888    -0.735632582    -3.739797091
 H       -0.498029099    -2.975581320     0.729617871
 H       -0.689192666    -2.872904426     2.473479748
 H        0.867155785    -2.489985378     1.752202053
 H       -0.654748640     0.840190103     2.881425852
 H        0.768612909    -0.202421503     3.051502978
 H       -0.787703536    -0.714855360     3.691047963

