187   

Si        0.000000000     0.000000000     0.000000000
 C        1.865566559     0.000000000     0.000000000
 C       -0.678147468     1.711165522     0.000000000
 C        0.147111599     2.815716029     0.233112025
 C       -0.378917547     4.107500978     0.230512305
 C       -1.740256324     4.324434060     0.002490190
 C       -2.566436159     3.216192971    -0.228239396
 C       -2.043784934     1.925988630    -0.230585830
 C       -2.333944308     5.657315398    -0.009296353
 C       -1.654278489     6.798879478     0.193022676
 C       -2.246528997     8.132359581     0.181535508
 C       -1.417761876     9.239147168     0.408048913
 C       -1.937897093    10.530922177     0.406502198
 C       -3.304549021    10.745309133     0.192521564
 C       -4.134608514     9.641324324    -0.031998732
 C       -3.608926156     8.350177608    -0.042291944
Si       -4.018776796    12.443177334     0.185384173
 C       -5.779034886    12.323074784     0.676382919
 C       -6.817256815    12.867423696     0.028332541
 C       -8.214267459    12.749543858     0.452396403
 C       -9.209765606    13.369194236    -0.317900146
 C      -10.545925336    13.289869501     0.036753945
 C      -10.953856384    12.518739254     1.146446473
 C       -9.954532742    11.892824501     1.914729807
 C       -8.611090239    12.034770328     1.584205779
 N      -12.324703105    12.449264941     1.494339622
 C      -13.247749794    12.414124835     0.332558220
 C      -12.663167224    11.481111176     2.550768663
 C      -14.743563525    12.450913314     0.688413339
 C      -15.174498483    13.675456821     1.522218751
 N      -15.013981912    14.996521175     0.883284433
 C      -13.685779774    15.496446946     0.883953901
 C      -13.028041293    15.583159372     2.129500629
 C      -11.733773913    16.061628319     2.197377737
 C      -11.079976208    16.537348195     1.047949080
 C      -11.747193331    16.488926336    -0.174534948
 C      -13.040915549    15.978807578    -0.263587209
 C      -15.757693072    15.120267549    -0.380179139
 C       -9.712002419    17.026763845     1.202146146
 C       -8.945912114    17.512840328     0.216198645
Si       -7.242822473    18.093689320     0.552124566
 C       -6.576943746    17.113274420     1.964597093
 C       -6.957135527    15.768641077     2.086066490
 C       -6.479658232    14.990656544     3.135426033
 C       -5.616589396    15.537144854     4.094809533
 C       -5.236014510    16.875611028     3.970359203
 C       -5.704883396    17.655341543     2.912084495
 C       -5.145746594    14.676960307     5.174236992
 C       -4.310034443    15.058796073     6.154551045
 C       -3.847302824    14.186415384     7.228625713
 C       -4.241023309    12.849782245     7.333813103
 C       -3.775502880    12.049212463     8.376582191
 C       -2.898053745    12.567623791     9.334105493
 C       -2.500000211    13.907395880     9.229633455
 C       -2.970820219    14.705547128     8.190790139
Si       -2.274568398    11.524260341    10.716366900
 C       -2.666371952     9.720767944    10.444681487
 C       -0.392086196    11.775951892    10.845429071
 C       -3.076356678    12.082988818    12.349771593
 C       -6.167696713    17.787095397    -0.984843467
 C       -7.241558833    19.948970451     0.954347436
 C       -3.038753581    13.545474764     1.383678183
 C       -3.847814343    13.171775090    -1.564114731
 C       -0.658666114    -0.898300237    -1.543547155
 C       -0.607564868    -0.927934945     1.547107377
 H        1.219410402     2.709350850     0.418972388
 H        0.285725936     4.950539120     0.410543313
 H       -3.629551252     3.363021989    -0.409071727
 H       -2.736345135     1.101105154    -0.420083541
 H       -3.410685879     5.677061951    -0.200925605
 H       -0.577343060     6.778665483     0.384639485
 H       -0.354379872     9.091037543     0.585376594
 H       -1.241992154    11.355530877     0.584048009
 H       -5.210332319     9.750472676    -0.206005713
 H       -4.273762086     7.507979118    -0.223814257
 H       -5.929947027    11.742459780     1.601609129
 H       -6.697981097    13.456644675    -0.891080382
 H       -8.929460463    13.947991450    -1.199005433
 H      -11.280489254    13.844241049    -0.544684383
 H      -10.212422248    11.296923307     2.783760633
 H       -7.861271117    11.554197786     2.214360339
 H      -13.730507493    11.560464741     2.811853478
 H      -12.103485575    11.737487172     3.469549620
 H      -12.447698589    10.436039060     2.277010653
 H      -16.801988099    14.804227755    -0.216892987
 H      -15.341157827    14.531666014    -1.212237354
 H      -15.785010002    16.184346614    -0.677531695
 H      -13.532969398    15.251337934     3.033759971
 H      -11.219208755    16.080331690     3.159253172
 H      -11.257487547    16.853451880    -1.077228801
 H      -13.529730308    15.949593819    -1.230919047
 H       -9.356400377    16.948922746     2.243409713
 H       -9.304967349    17.597700554    -0.815953053
 H       -7.626403370    15.278734584     1.364641399
 H       -6.783187889    13.946145263     3.203405960
 H       -4.564909221    17.322043162     4.700794273
 H       -5.367932809    18.693456993     2.862808385
 H       -5.537175189    13.654493821     5.145970730
 H       -3.921519873    16.079939633     6.191235975
 H       -4.918901425    12.419652422     6.598521706
 H       -4.119293637    11.011570806     8.406831673
 H       -1.814765764    14.366063298     9.948091400
 H       -2.651630350    15.743954533     8.126965354
 H      -13.026450865    13.312317964    -0.296442072
 H      -13.049366347    11.517567956    -0.298310182
 H      -15.319979794    12.424487111    -0.257854744
 H      -15.034058558    11.530610314     1.229839576
 H      -16.251692341    13.574708956     1.790498369
 H      -14.611171096    13.676524889     2.484934175
 H        2.263377671    -1.029853560    -0.037003573
 H        2.274572509     0.482148578     0.905169666
 H        2.261838099     0.540155803    -0.878973982
 H       -2.249749972     9.096121201    11.254891551
 H       -2.234534796     9.360528616     9.493102933
 H       -3.754899126     9.539258329    10.411150407
 H       -0.240644850    12.875321862    11.052246053
 C        0.256110461    10.986056757    11.996289984
 C        0.337470562    11.439453316     9.532226018
 H       -2.701178952    11.363914354    13.134276372
 C       -2.678469519    13.506216290    12.780142566
 C       -4.612986185    11.990761417    12.313438310
 H       -6.598233160    18.432772120    -1.802818124
 C       -4.696028809    18.188014550    -0.781736441
 C       -6.226485415    16.320849554    -1.449391002
 H       -6.165228600    20.226637845     1.148548426
 C       -7.754619772    20.822987546    -0.204319411
 C       -8.055090704    20.273815209     2.220457778
 H       -1.956287156    13.434024224     1.080248091
 C       -3.398242572    15.036414904     1.284614692
 C       -3.170420446    13.086645554     2.845436203
 H       -4.381936149    14.166254435    -1.538877434
 C       -2.387090318    13.428889211    -1.974881820
 C       -4.515844268    12.295644361    -2.639160149
 H       -1.783458054    -0.893304833    -1.446917247
 C       -0.295982287    -0.168608879    -2.849672631
 C       -0.200688074    -2.364155163    -1.643910662
 H       -0.101602872    -1.936035805     1.514554086
 C       -0.193409512    -0.227626073     2.854444090
 C       -2.128824298    -1.160173226     1.573694427
 H       -0.166389416    11.226168557    12.980484934
 H        1.328435236    11.222687926    12.056318110
 H        0.189597557     9.898510484    11.859944730
 H       -0.037181598    12.008918965     8.669486203
 H        0.284738366    10.373773384     9.272614944
 H        1.405550914    11.683969513     9.620734270
 H       -1.596368054    13.637308453    12.906444173
 H       -3.131378365    13.744035391    13.753747310
 H       -3.033526883    14.277416141    12.082144603
 H       -4.984395494    10.980584741    12.098387479
 H       -5.064618093    12.674263372    11.580022545
 H       -5.030656288    12.269763510    13.291402448
 H       -4.563467030    19.247423879    -0.528934687
 H       -4.128257796    18.021316162    -1.708265685
 H       -4.195087680    17.594466302    -0.002661459
 H       -7.242343297    15.984384317    -1.697088566
 H       -5.818450901    15.626564660    -0.698526537
 H       -5.624582466    16.187064322    -2.358845820
 H       -7.172837822    20.709462534    -1.127635646
 H       -7.689234410    21.885935402     0.069621803
 H       -8.809729034    20.633804716    -0.446740005
 H       -7.712725218    19.729482704     3.111613361
 H       -9.129054542    20.068251448     2.101726704
 H       -7.970451551    21.342694532     2.460780739
 H       -3.237421768    15.461441870     0.286571080
 H       -2.775179758    15.621672339     1.975983608
 H       -4.440676781    15.247167891     1.572367609
 H       -2.869509552    12.043208511     3.007864637
 H       -4.189946807    13.209252657     3.238157575
 H       -2.523219081    13.696658073     3.493012822
 H       -1.865577235    14.131821410    -1.312216339
 H       -2.351225738    13.871410609    -2.980593081
 H       -1.788355990    12.508680109    -2.025160086
 H       -5.579035228    12.097452473    -2.447376881
 H       -4.019054908    11.322626824    -2.763115893
 H       -4.464740218    12.792748624    -3.617677202
 H       -0.643026349     0.874439880    -2.874323757
 H       -0.769753575    -0.669632876    -3.705759655
 H        0.782988551    -0.162995087    -3.053170342
 H       -0.490384897    -2.970596609    -0.776088958
 H        0.884671606    -2.465731077    -1.775737212
 H       -0.662102362    -2.842123072    -2.520297287
 H        0.891702398    -0.096675505     2.954941613
 H       -0.511916469    -0.826329807     3.719763567
 H       -0.660145593     0.760615332     2.975632369
 H       -2.500191892    -1.719979432     0.706122825
 H       -2.701539087    -0.224637383     1.642946815
 H       -2.402388511    -1.751848863     2.459496258

