187   

Si        0.000000000     0.000000000     0.000000000
 C        1.865366064     0.000000000     0.000000000
 C       -0.673574390     1.713517711     0.000000000
 C        0.141035062     2.806788018    -0.311404231
 C       -0.377500208     4.101445731    -0.308998708
 C       -1.720875420     4.332781250    -0.002058190
 C       -2.536957998     3.235971126     0.305745891
 C       -2.021818898     1.942561901     0.306185117
 C       -2.305213275     5.669896685     0.012384876
 C       -1.631946507     6.800302058    -0.261464352
 C       -2.211911484     8.139048667    -0.248250010
 C       -3.554560611     8.376638283     0.057910323
 C       -4.066733537     9.673860495     0.058509692
 C       -3.247640834    10.761089121    -0.261585626
 C       -1.901234789    10.526002803    -0.570802819
 C       -1.390503215     9.231121875    -0.558749045
Si       -3.894850927    12.482432620    -0.269115139
 C       -3.077698910    13.510148780    -1.542653047
 C       -2.595225765    13.028979138    -2.696062753
 C       -1.940395724    13.846722692    -3.718769477
 C       -1.476930614    13.220975035    -4.887084275
 C       -0.850976982    13.947525859    -5.885036515
 C       -0.698188188    15.344601137    -5.756842839
 C       -1.156943415    15.972761432    -4.588356693
 C       -1.751105404    15.222577537    -3.578638817
 N       -0.051771004    16.039351655    -6.804352778
 C       -0.606849491    15.809832321    -8.158227797
 C        0.295139585    17.446146294    -6.546135550
 C       -2.131654679    15.630504767    -8.237783685
 C       -2.907617203    16.853763751    -7.717853211
 N       -4.319172829    16.558896935    -7.415322282
 C       -5.141951645    16.163297007    -8.483725598
 C       -4.870232542    16.605769845    -9.796406015
 C       -5.680607934    16.216493098   -10.850623230
 C       -6.815767414    15.421439333   -10.639410284
 C       -7.103074935    15.012144398    -9.334305138
 C       -6.291905956    15.378044889    -8.268682608
 C       -4.492560058    15.837179048    -6.142059668
 C       -7.636160685    15.039571237   -11.789251106
 C       -8.740283541    14.284766350   -11.708915165
Si       -9.766560213    13.806552175   -13.143845378
 C       -9.720111240    15.070408686   -14.479789490
 C       -9.578098520    16.424188428   -14.153414347
 C       -9.541164513    17.393997876   -15.153933328
 C       -9.658843079    17.036366005   -16.500052112
 C       -9.810031863    15.681842362   -16.823803003
 C       -9.842715784    14.709729964   -15.826955608
 C       -9.625740057    18.016341201   -17.580581286
 C       -9.486149176    19.341657472   -17.407522842
 C       -9.453058577    20.321576634   -18.488171745
 C       -9.566096014    19.964019413   -19.834066011
 C       -9.529369069    20.934163232   -20.835568863
 C       -9.371355389    22.285240598   -20.511532929
 C       -9.256786862    22.646674155   -19.162228573
 C       -9.299801930    21.676635685   -18.164791101
Si       -9.320949708    23.577478287   -21.821654327
 C       -9.103489548    22.828291893   -23.516142973
 C      -10.945488397    24.569328690   -21.795262757
 C       -7.881682583    24.762359576   -21.436318612
 C       -9.154563251    12.130144231   -13.803852496
 C      -11.565066920    13.610583313   -12.554918400
 C       -5.767864387    12.483661061    -0.602766328
 C       -3.574139596    13.265258188     1.434160849
 C       -0.616721029    -0.919729721    -1.547907539
 C       -0.657243500    -0.903566131     1.541155625
 H        1.199475935     2.689267905    -0.559838922
 H        0.278902593     4.935262775    -0.551484117
 H       -3.586249857     3.393843952     0.547650545
 H       -2.706251872     1.126621070     0.554913234
 H       -3.367821479     5.702654454     0.269709414
 H       -0.568979573     6.765650914    -0.518512686
 H       -4.214027983     7.546146843     0.302472591
 H       -5.122870588     9.797071291     0.312917097
 H       -1.214097697    11.339958552    -0.826278661
 H       -0.341074263     9.067878684    -0.797400376
 H       -3.020566896    14.581995046    -1.300518718
 H       -2.648447653    11.963717061    -2.963619904
 H       -1.601538115    12.143618047    -5.007545938
 H       -0.466528037    13.444263495    -6.769251427
 H       -1.052428351    17.044826566    -4.455488963
 H       -2.085194894    15.729103021    -2.672135974
 H        0.975801537    17.797096313    -7.342195359
 H        0.857314078    17.516796664    -5.597384533
 H       -0.567582256    18.128577130    -6.498798241
 H       -3.722202994    16.147312297    -5.413351097
 H       -4.427671518    14.741245807    -6.245571109
 H       -5.473754284    16.102622931    -5.709216375
 H       -4.019014625    17.250188164    -9.993348651
 H       -5.436305804    16.549245218   -11.860449675
 H       -7.981496851    14.394792646    -9.140687585
 H       -6.554596226    15.041670994    -7.270729827
 H       -7.260322207    15.442130179   -12.740833052
 H       -9.089918685    13.886381970   -10.744580766
 H       -9.487196937    16.764371882   -13.115899427
 H       -9.422374291    18.439457607   -14.874951196
 H       -9.904166484    15.382222880   -17.865645836
 H       -9.963486971    13.669408267   -16.140533491
 H       -9.725445747    17.593916843   -18.584651760
 H       -9.386940461    19.764511026   -16.403405497
 H       -9.685792477    18.918827560   -20.113209877
 H       -9.624092954    20.593296374   -21.870207465
 H       -9.130866491    23.687126969   -18.849591855
 H       -9.211099835    21.976781675   -17.122351100
 H       -0.288273872    16.636788593    -8.829250227
 H       -0.111179691    14.887557152    -8.548806664
 H       -2.423620768    15.416765959    -9.284770826
 H       -2.437600720    14.729263183    -7.668159192
 H       -2.439471174    17.246627689    -6.785874326
 H       -2.864491166    17.689425645    -8.450955050
 H        2.263260667    -1.029024158     0.056621541
 H        2.261154390     0.556848739     0.868812282
 H        2.275132151     0.464765507    -0.913785488
 H       -9.026854766    23.611692999   -24.291156779
 H       -9.951581058    22.175191415   -23.786566344
 H       -8.181039648    22.221651741   -23.565571822
 H      -10.872357865    25.296608660   -22.654818576
 C      -12.181784111    23.680868422   -22.025566593
 C      -11.154295004    25.378529490   -20.502768410
 H       -8.111263649    25.209628748   -20.425551959
 C       -6.530119173    24.032793118   -21.332067457
 C       -7.751474709    25.918200482   -22.444144485
 H       -9.856058867    11.847316574   -14.640783639
 C       -7.729718352    12.214792848   -14.379920409
 C       -9.200407911    11.010532993   -12.748580857
 H      -11.545242938    12.822963203   -11.747586357
 C      -12.121805295    14.908718312   -11.943103934
 C      -12.516361093    13.133070103   -13.665841079
 H       -6.235414325    11.883947343     0.230669356
 C       -6.387054694    13.892620716    -0.578592305
 C       -6.122743717    11.806636547    -1.938838073
 H       -3.993782638    14.311105009     1.382063141
 C       -4.280831714    12.522887254     2.581541163
 C       -2.072042307    13.367991503     1.754320343
 H       -0.123668279    -1.934232642    -1.516989435
 C       -2.141122361    -1.131228321    -1.571672112
 C       -0.195110500    -0.223888679    -2.855153037
 H       -1.781958795    -0.903084812     1.443773035
 C       -0.194091039    -2.368077828     1.638400096
 C       -0.297793734    -0.175675574     2.849125752
 H      -12.152558821    23.129618434   -22.974190454
 H      -13.089928920    24.299780508   -22.058181724
 H      -12.337717459    22.948757122   -21.220062246
 H      -10.351078046    26.099377731   -20.304540375
 H      -11.263785930    24.741223454   -19.613918234
 H      -12.081734090    25.965494863   -20.573487448
 H       -6.530342127    23.223199033   -20.588119764
 H       -5.744883891    24.736036446   -21.020005685
 H       -6.199106124    23.603817859   -22.287107342
 H       -8.658464192    26.531573247   -22.521783236
 H       -7.490325458    25.577859042   -23.454920785
 H       -6.946105529    26.599036068   -22.132030022
 H       -7.627989778    12.953263969   -15.187240375
 H       -7.437386876    11.246431322   -14.809374171
 H       -6.974716222    12.454658639   -13.616943261
 H      -10.204815456    10.834263748   -12.343271538
 H       -8.523871271    11.194092906   -11.901928174
 H       -8.879543407    10.059027268   -13.196452961
 H      -11.523958078    15.286419352   -11.102216530
 H      -13.133645279    14.736975927   -11.549787392
 H      -12.212085856    15.722070628   -12.677585924
 H      -12.240388907    12.157693249   -14.086221278
 H      -12.594878138    13.846612529   -14.498653775
 H      -13.534168976    13.017652175   -13.265881074
 H       -6.240942775    14.417053081     0.374335117
 H       -7.474657364    13.826979454    -0.727227243
 H       -6.006543426    14.540309657    -1.380831252
 H       -5.766986975    10.769370133    -2.010983652
 H       -5.731555456    12.350641343    -2.810944127
 H       -7.213908348    11.766491322    -2.063800683
 H       -5.372618485    12.492930570     2.474333076
 H       -4.080454994    13.029260001     3.537044371
 H       -3.927993363    11.488716587     2.704563897
 H       -1.503108444    13.934766802     1.004802377
 H       -1.590666202    12.385200133     1.863119833
 H       -1.925146900    13.888594175     2.711343548
 H       -2.515472191    -1.702531242    -0.712837734
 H       -2.426671661    -1.702587956    -2.467013957
 H       -2.702371126    -0.187414360    -1.620367571
 H        0.891450472    -0.106829094    -2.956778997
 H       -0.649763787     0.769993958    -2.975626441
 H       -0.521885269    -0.818098897    -3.720559017
 H       -0.478120735    -2.972817242     0.767523105
 H       -0.657243747    -2.850746873     2.511353502
 H        0.891126730    -2.466088581     1.774214871
 H       -0.647683016     0.866267983     2.876142416
 H        0.781090635    -0.167372222     3.053397381
 H       -0.770534353    -0.680346778     3.703718064

