187   

Si        0.000000000     0.000000000     0.000000000
 C        1.864959758     0.000000000     0.000000000
 C       -0.682409320     1.709775801     0.000000000
 C        0.099552025     2.797686179    -0.401208123
 C       -0.426747660     4.089418955    -0.397664863
 C       -1.746030327     4.322196703    -0.000569701
 C       -2.530022964     3.230311146     0.395658942
 C       -2.007316709     1.940149637     0.394374956
 C       -2.340335311     5.654546754     0.019745807
 C       -1.703539743     6.784346361    -0.332386456
 C       -2.303200164     8.114580298    -0.310063574
 C       -1.525675814     9.212092791    -0.703591016
 C       -2.056013749    10.499517086    -0.698183662
 C       -3.382248659    10.718087125    -0.304609192
 C       -4.160741084     9.624808877     0.089132703
 C       -3.623720850     8.337991395     0.089383310
Si       -4.089697853    12.415261954    -0.294838199
 C       -5.915722268    12.320974790    -0.271187812
 C       -6.726337266    12.975702092     0.569685443
 C       -8.187171715    12.867233706     0.549222573
 C       -8.931634285    13.604333490     1.483360691
 C      -10.314760567    13.536236611     1.505233757
 C      -10.999596586    12.742732989     0.562787768
 C      -10.259812370    11.999987687    -0.368656685
 C       -8.869797819    12.051261718    -0.355791602
 N      -12.415520799    12.718483042     0.642218644
 C      -13.077714148    14.019272018     0.418264722
 C      -13.079117421    11.592739374    -0.032400704
 C      -13.381284106    14.389904590    -1.043903632
 C      -12.135558424    14.652857309    -1.910521069
 N      -11.478785985    15.952974796    -1.701855665
 C      -12.270543805    17.106338815    -1.762600636
 C      -13.359935426    17.159320444    -2.661274048
 C      -14.153376823    18.291613343    -2.734647907
 C      -13.870232938    19.428703064    -1.963696649
 C      -12.774030024    19.385662636    -1.098047178
 C      -11.978911106    18.251810891    -0.995790459
 C      -10.375120647    15.932325568    -0.733682323
 C      -14.743255383    20.596766352    -2.082025419
 C      -14.574479810    21.737283404    -1.398866379
Si      -15.668058157    23.194207425    -1.550101125
 C      -17.393498261    22.713968134    -1.971625460
 C      -17.917386960    21.512935633    -1.474532930
 C      -19.220264253    21.130737157    -1.781232402
 C      -20.036650452    21.942908251    -2.579650882
 C      -19.514486948    23.144126906    -3.066785919
 C      -18.207942799    23.527726266    -2.765180444
 C      -21.395036219    21.498428759    -2.872901292
 C      -22.277755431    22.176097858    -3.626148728
 C      -23.635815035    21.729044020    -3.917767846
 C      -24.154885919    20.527357397    -3.429103589
 C      -25.459353244    20.137924407    -3.732489911
 C      -26.276588896    20.947017691    -4.527988354
 C      -25.758519992    22.153156706    -5.019093382
 C      -24.454283335    22.536437811    -4.719160982
Si      -28.000239379    20.447007857    -4.937239981
 C      -28.573120359    19.025824647    -3.873289038
 C      -29.134895554    21.954874881    -4.686598082
 C      -28.091297783    19.918833395    -6.763676181
 C      -15.679799311    24.113756096     0.115192481
 C      -14.964414985    24.354950970    -2.883546032
 C       -3.429198029    13.362294262     1.215677315
 C       -3.559025546    13.332911144    -1.874838076
 C       -0.621598502    -0.914885243    -1.549139557
 C       -0.650241848    -0.915075974     1.537896777
 H        1.138042363     2.677877756    -0.721970680
 H        0.203967056     4.919623389    -0.710235455
 H       -3.560396321     3.389517116     0.708227070
 H       -2.667104459     1.128268508     0.713078365
 H       -3.382022066     5.684539202     0.353491267
 H       -0.662368420     6.756298384    -0.666153216
 H       -0.494771719     9.059451180    -1.017025122
 H       -1.402338915    11.317341216    -1.013659867
 H       -5.201427290     9.737934713     0.410095495
 H       -4.247976028     7.503419350     0.403634916
 H       -6.323970482    11.656968809    -1.052208889
 H       -6.353405620    13.649317891     1.352105863
 H       -8.415410659    14.229643176     2.212497121
 H      -10.880310494    14.081451410     2.258525642
 H      -10.761188771    11.374603661    -1.101300364
 H       -8.312632054    11.454231601    -1.079562890
 H      -14.148868802    11.594293552     0.241187971
 H      -12.649664697    10.645544292     0.340949804
 H      -12.999820628    11.605576720    -1.130548446
 H       -9.809823594    14.985575689    -0.820859382
 H      -10.702572159    16.034876820     0.313589063
 H       -9.667473892    16.747716384    -0.972094069
 H      -13.579453057    16.310385882    -3.301551022
 H      -15.003186603    18.303016035    -3.418716550
 H      -12.531629597    20.256473327    -0.487124409
 H      -11.140710565    18.259411245    -0.307189197
 H      -15.570291410    20.447129980    -2.791075961
 H      -13.732161186    21.866690465    -0.703005674
 H      -17.326991934    20.840775554    -0.842366598
 H      -19.607428912    20.190898178    -1.392399367
 H      -20.127645490    23.793494320    -3.688595893
 H      -17.855678867    24.478224437    -3.174913648
 H      -21.668287167    20.538349714    -2.424979836
 H      -22.005718687    23.136027863    -4.074546937
 H      -23.540989413    19.881179611    -2.804324174
 H      -25.808802210    19.186550053    -3.321996240
 H      -26.351222286    22.826240883    -5.645043070
 H      -24.069199686    23.475852816    -5.111271567
 H      -14.036376130    13.984730598     0.990608301
 H      -12.469044358    14.824104422     0.887517441
 H      -13.988368422    13.596156912    -1.517764528
 H      -14.032105349    15.290319651    -1.046244732
 H      -11.385317787    13.843643945    -1.756595133
 H      -12.418304506    14.595232724    -2.989664921
 H        2.262669499    -1.029630145     0.045461635
 H        2.260019124     0.547667439     0.875107976
 H        2.275927641     0.475185317    -0.907804154
 H      -29.622552595    18.760995282    -4.094227695
 H      -28.515677114    19.285966745    -2.800674055
 H      -27.961185909    18.121096392    -4.034301102
 H      -28.754684880    22.748835071    -5.393312907
 C      -30.608084020    21.679371856    -5.036401730
 C      -29.055791488    22.520524431    -3.257041846
 H      -29.152826078    19.573214064    -6.927940464
 C      -27.804843237    21.062789373    -7.752761152
 C      -27.151378303    18.742350733    -7.085043033
 H      -14.607804601    24.397134079     0.323016336
 C      -16.519018080    25.403029651     0.088118854
 C      -16.170475220    23.221704507     1.269840077
 H      -15.640058103    25.258110289    -2.901752974
 C      -13.535952765    24.837552609    -2.573891637
 C      -14.981692732    23.713786714    -4.282730570
 H       -3.978690482    14.347927291     1.228074851
 C       -3.723226918    12.631483147     2.538654040
 C       -1.921107558    13.659777566     1.140745132
 H       -2.433694098    13.403363690    -1.830551344
 C       -3.936766739    12.568163331    -3.155758102
 C       -4.123779175    14.761851479    -1.957560295
 H       -0.140779465    -1.935010777    -1.516875007
 C       -2.148539386    -1.107321639    -1.573666518
 C       -0.189731559    -0.225058952    -2.856139943
 H       -1.774704499    -0.927196986     1.439473223
 C       -0.171487686    -2.374907555     1.630957836
 C       -0.299676127    -0.187924852     2.848676445
 H      -30.753457758    21.341080819    -6.070451644
 H      -31.197898687    22.601449867    -4.929325400
 H      -31.074713143    20.938812953    -4.373428438
 H      -28.034854707    22.795071075    -2.954975665
 H      -29.450281383    21.830265586    -2.499687252
 H      -29.655571265    23.438704121    -3.181034379
 H      -28.491832197    21.911991902    -7.647791564
 H      -27.918853950    20.702889837    -8.785783010
 H      -26.777874665    21.446794014    -7.675294878
 H      -27.345606122    17.849557434    -6.476916527
 H      -26.088955186    19.000340557    -6.967578759
 H      -27.278675675    18.433746655    -8.132596249
 H      -16.170918289    26.134181325    -0.652582694
 H      -16.466804073    25.906671478     1.064239879
 H      -17.585556833    25.215698399    -0.102259955
 H      -15.583373697    22.300980796     1.389818624
 H      -17.225841740    22.931217031     1.165737873
 H      -16.094002416    23.763080801     2.223374175
 H      -13.454698762    25.378397289    -1.622602773
 H      -13.198629273    25.536030076    -3.353264934
 H      -12.802854324    24.018662942    -2.558674943
 H      -15.982420692    23.394649754    -4.605214300
 H      -14.317015938    22.840767204    -4.360156870
 H      -14.631388962    24.435435817    -5.033874377
 H       -4.788759326    12.415176325     2.695316319
 H       -3.404685388    13.249085901     3.390222641
 H       -3.179648794    11.679603013     2.628955363
 H       -1.638504880    14.264999438     0.270017943
 H       -1.304970555    12.749530436     1.133519760
 H       -1.607235325    14.232521275     2.025811204
 H       -3.533647134    11.545998348    -3.188078564
 H       -3.530291061    13.085350640    -4.036784652
 H       -5.022226134    12.502394783    -3.311510230
 H       -3.820849560    15.399236095    -1.116911969
 H       -5.221536039    14.786379072    -2.015771009
 H       -3.757218591    15.259032512    -2.867274406
 H       -2.528665855    -1.683035438    -0.720295865
 H       -2.442215772    -1.665638263    -2.474540540
 H       -2.698586645    -0.156290986    -1.611063295
 H        0.898284236    -0.120665260    -2.955727631
 H       -0.633171237     0.773641296    -2.978447520
 H       -0.521615880    -0.816446971    -3.721566779
 H       -0.446216802    -2.979427505     0.756965296
 H       -0.632087466    -2.865912964     2.500607754
 H        0.914315134    -2.461612169     1.769821664
 H       -0.659655386     0.850479011     2.878882698
 H        0.778889759    -0.169566357     3.054173864
 H       -0.768097552    -0.700250700     3.701106909

