187   

Si        0.000000000     0.000000000     0.000000000
 C        1.865290030     0.000000000     0.000000000
 C       -0.681440694     1.709710995     0.000000000
 C        0.128757412     2.810680640    -0.295016522
 C       -0.400350160     4.100935222    -0.291508975
 C       -1.748120157     4.319889822     0.005766801
 C       -2.559118549     3.215584271     0.298333165
 C       -2.034728750     1.926117923     0.293431635
 C       -2.343123243     5.651819131     0.020897873
 C       -1.672753690     6.785815492    -0.243790264
 C       -2.258441716     8.120732136    -0.231136836
 C       -1.436167770     9.216310714    -0.528038849
 C       -1.948760656    10.510063203    -0.528754887
 C       -3.296437331    10.740801224    -0.222127568
 C       -4.116585789     9.649539351     0.080639238
 C       -3.600965442     8.353418513     0.077239575
Si       -3.957863282    12.458097676    -0.227712033
 C       -5.712561134    12.460538266     0.288872741
 C       -6.237223126    13.254838742     1.231155660
 C       -7.644977087    13.244298252     1.633191834
 C       -8.062403769    14.132085167     2.636861845
 C       -9.380964832    14.166978169     3.057867062
 C      -10.343791656    13.335028463     2.448920576
 C       -9.929520662    12.448218954     1.441092748
 C       -8.594028893    12.397402037     1.056696203
 N      -11.679405737    13.403172512     2.910425114
 C      -12.228286120    14.771125886     3.045680690
 C      -12.625195445    12.461442921     2.288727406
 C      -11.946395757    15.673347613     1.829188125
 C      -13.100576360    16.621947230     1.465374259
 N      -14.375909598    15.989402299     1.060691719
 C      -14.285110598    14.805961045     0.305248028
 C      -13.346439077    14.743120535    -0.748766952
 C      -13.229812133    13.595490898    -1.512375594
 C      -14.078720459    12.497533830    -1.302918828
 C      -15.033612318    12.576841200    -0.288048050
 C      -15.149021837    13.714325988     0.503334773
 C      -15.411551748    16.035274035     2.104875694
 C      -13.907304888    11.311831485    -2.141694407
 C      -14.649436642    10.200385886    -2.044371687
Si      -14.389135197     8.746124198    -3.122121870
 C      -12.615471908     8.649640001    -3.603029884
 C      -11.642395766     8.840797768    -2.612963604
 C      -10.287281718     8.777016858    -2.929350846
 C       -9.873113820     8.515188274    -4.239029660
 C      -10.847490265     8.321778472    -5.226031635
 C      -12.203839945     8.388083984    -4.913484759
 C       -8.466214558     8.439237974    -4.616220073
 C       -7.436451147     8.605047127    -3.768939143
 C       -6.030719642     8.528109939    -4.151143710
 C       -5.617791300     8.269487274    -5.460969299
 C       -4.262295377     8.204833837    -5.781139233
 C       -3.288406322     8.394164105    -4.794501084
 C       -3.700782759     8.643928607    -3.480389458
 C       -5.054908178     8.702585055    -3.162485398
Si       -1.498394617     8.309339465    -5.214445462
 C       -1.197920669     8.747647734    -7.002635739
 C       -0.556763261     9.504107948    -4.070518083
 C       -0.873234542     6.539398001    -4.896902658
 C      -14.875046919     7.172670652    -2.171999737
 C      -15.502352842     8.898802346    -4.656551358
 C       -2.930353151    13.579315122     0.913533480
 C       -3.841907535    13.106900952    -2.014420762
 C       -0.611887504    -0.912934672    -1.554418499
 C       -0.658000658    -0.909366696     1.537065608
 H        1.190419664     2.701815936    -0.532663696
 H        0.251767437     4.941035762    -0.523927165
 H       -3.612285199     3.364008671     0.530306348
 H       -2.715853170     1.103269068     0.528223906
 H       -3.409606283     5.676108196     0.262803487
 H       -0.605274234     6.757247095    -0.482587381
 H       -0.383700636     9.056699681    -0.755558604
 H       -1.263075447    11.324010137    -0.781538951
 H       -5.172223702     9.771667695     0.342564926
 H       -4.257947038     7.519712387     0.318653462
 H       -6.343244379    11.747182744    -0.267066110
 H       -5.638489502    13.984380104     1.793161045
 H       -7.336334501    14.797188534     3.104605009
 H       -9.675446511    14.835983486     3.861724643
 H      -10.644006642    11.798331631     0.942761238
 H       -8.295030895    11.694694934     0.277092482
 H      -13.603684934    12.536498923     2.791547769
 H      -12.264191718    11.428656105     2.439718807
 H      -12.783660249    12.633506871     1.208991944
 H      -15.453392188    17.049391894     2.538424021
 H      -15.261716571    15.311199480     2.921293403
 H      -16.399539374    15.850695175     1.643298369
 H      -12.717253429    15.603261608    -0.965155604
 H      -12.478251327    13.553713186    -2.303252939
 H      -15.709004926    11.738913456    -0.110015955
 H      -15.903704005    13.735408095     1.281960812
 H      -13.085901621    11.414835237    -2.867214949
 H      -15.471505317    10.114488993    -1.320743434
 H      -11.907821174     9.054339499    -1.571512773
 H       -9.549668925     8.934392274    -2.144093535
 H      -10.545367688     8.117512092    -6.251393323
 H      -12.918211550     8.226944818    -5.725031812
 H       -8.287611320     8.229476210    -5.674640934
 H       -7.612840480     8.814711983    -2.709475794
 H       -6.355171445     8.119820303    -6.246697306
 H       -4.000000856     8.003008890    -6.822974938
 H       -2.986298963     8.793968201    -2.661593832
 H       -5.351355493     8.889519789    -2.130294613
 H      -13.319968804    14.695471972     3.236856684
 H      -11.789765470    15.216232215     3.967479960
 H      -11.033517470    16.273313489     2.013994681
 H      -11.683112718    15.040592802     0.955493431
 H      -13.290778642    17.318874587     2.310649245
 H      -12.782937111    17.262523706     0.605226243
 H        2.262792946    -1.029583742     0.048309353
 H        2.261550367     0.549703574     0.873077969
 H        2.274933127     0.472050169    -0.910068381
 H       -0.118317794     8.761612065    -7.233902946
 H       -1.600846360     9.749892760    -7.235858436
 H       -1.675081263     8.026302238    -7.688156183
 H       -0.769336001     9.146221161    -3.019295948
 C        0.968210897     9.481700260    -4.274150191
 C       -1.058153109    10.955087963    -4.181820500
 H        0.181895334     6.509688789    -5.293676359
 C       -0.834552992     6.162353107    -3.406584019
 C       -1.698445971     5.480451167    -5.650976323
 H      -15.966778342     7.292231372    -1.912868177
 C      -14.719218032     5.892202853    -3.010808903
 C      -14.090262229     7.007151720    -0.857989594
 H      -15.258131524     8.009961698    -5.307379494
 C      -17.004956274     8.844569435    -4.326062517
 C      -15.218938492    10.179215877    -5.462788300
 H       -3.507342228    14.548171527     0.979816570
 C       -2.801932777    12.999727344     2.334336262
 C       -1.522644110    13.913362810     0.388740923
 H       -2.750640570    13.036153914    -2.294416727
 C       -4.644249649    12.253901743    -3.011040668
 C       -4.278665813    14.575975164    -2.149927184
 H       -0.109355061    -1.922793671    -1.533126434
 C       -2.134201543    -1.138489310    -1.577807149
 C       -0.199630823    -0.200409201    -2.855792981
 H       -1.782642557    -0.910375610     1.438289818
 C       -0.192597284    -2.373387107     1.630182559
 C       -0.301643726    -0.184937573     2.847855042
 H        1.409925988     8.486227934    -4.136859905
 H        1.455396592    10.139976613    -3.540568895
 H        1.273139072     9.847149249    -5.263268973
 H       -2.134494282    11.057817979    -3.974925579
 H       -0.866867207    11.401821744    -5.165715369
 H       -0.543891660    11.589809209    -3.446465916
 H       -0.160817762     6.796961248    -2.817889546
 H       -0.474477750     5.129934586    -3.285227596
 H       -1.826543586     6.191348635    -2.929649757
 H       -1.717416071     5.631511043    -6.737217133
 H       -2.740462565     5.426734595    -5.302476256
 H       -1.268953625     4.481619225    -5.486099615
 H      -15.321784510     5.895540006    -3.928194198
 H      -15.049082067     5.018746783    -2.429956237
 H      -13.676665713     5.692571580    -3.297625261
 H      -14.179670252     7.869346033    -0.183389555
 H      -13.019219983     6.820898978    -1.022621630
 H      -14.469145426     6.138531453    -0.300835030
 H      -17.308445531     7.914845769    -3.828281827
 H      -17.595028777     8.901806038    -5.252293392
 H      -17.336030291     9.684860667    -3.700202613
 H      -14.172050510    10.276590363    -5.781076532
 H      -15.480294382    11.094981497    -4.912159515
 H      -15.822375128    10.188680940    -6.381232025
 H       -3.768667377    12.782462687     2.809808226
 H       -2.288939915    13.716307897     2.990888154
 H       -2.209133715    12.074299961     2.364921984
 H       -1.522959233    14.356513850    -0.615272422
 H       -0.853580783    13.042681993     0.374500511
 H       -1.044030737    14.651803261     1.048696229
 H       -4.359508181    11.190328680    -3.008952941
 H       -4.472340573    12.608185709    -4.037587116
 H       -5.729321649    12.305097980    -2.848379217
 H       -3.696785263    15.265892729    -1.526174922
 H       -5.341159914    14.729064979    -1.912806446
 H       -4.145281813    14.912757356    -3.188209755
 H       -2.502829270    -1.716510793    -0.721039491
 H       -2.415139515    -1.708854648    -2.475247922
 H       -2.704075273    -0.199528666    -1.622702391
 H        0.885350930    -0.070166549    -2.957556906
 H       -0.666424765     0.789173117    -2.966621207
 H       -0.520454333    -0.790910585    -3.725970326
 H       -0.472548553    -2.975191816     0.755924524
 H       -0.657902198    -2.860245164     2.499673119
 H        0.892322869    -2.469938330     1.769275171
 H       -0.654229745     0.856004157     2.877982806
 H        0.776927394    -0.174743046     3.053488759
 H       -0.774225016    -0.693605780     3.700222323

