187   

Si        0.000000000     0.000000000     0.000000000
 C        1.865255551     0.000000000     0.000000000
 C       -0.681959728     1.709343248     0.000000000
 C        0.145903225     2.823649407    -0.166351335
 C       -0.389653559     4.111857817    -0.163525743
 C       -1.764196156     4.311474333    -0.018327888
 C       -2.593501444     3.193293765     0.144569426
 C       -2.060170122     1.908518483     0.161624287
 C       -2.373357123     5.635408294    -0.008838923
 C       -1.708923116     6.796605750    -0.134870995
 C       -2.348909809     8.108379157    -0.121387053
 C       -1.556074654     9.254945038    -0.261160892
 C       -2.132200455    10.522747160    -0.252882137
 C       -3.515034915    10.672646724    -0.088173833
 C       -4.309740160     9.530245837     0.048253976
 C       -3.730543634     8.263049376     0.020216824
Si       -4.285122310    12.342515756    -0.075868448
 C       -6.092449578    12.165772881    -0.278437844
 C       -7.027848051    12.736411068     0.491469832
 C       -8.467160529    12.564392013     0.288842385
 C       -9.356558266    13.211425904     1.158892743
 C      -10.726958905    13.078885969     1.007243564
 C      -11.255548655    12.237826623     0.005410565
 C      -10.365440157    11.581341841    -0.860740723
 C       -8.994168036    11.762570086    -0.726116395
 N      -12.659790082    12.125770421    -0.121613301
 C      -13.394575699    11.980066567     1.151680814
 C      -13.155811539    11.207665586    -1.161002820
 C      -12.943041567    10.772800548     1.996355866
 C      -12.743877416    11.182150835     3.466808348
 N      -12.244375224    10.095233948     4.318838909
 C      -10.910170200     9.677780093     4.174903738
 C       -9.946491716    10.486685511     3.538373921
 C       -8.635469742    10.052304321     3.408537103
 C       -8.222220131     8.822640997     3.938672809
 C       -9.173261315     8.034375209     4.593670804
 C      -10.491420532     8.447612733     4.721169665
 C      -13.247848197     9.044908910     4.560609760
 C       -6.829195004     8.397763462     3.781549268
 C       -6.351489961     7.239642846     4.256753167
Si       -4.639099134     6.619150749     4.114929897
 C       -4.008456004     6.079355029     5.756046094
 C       -4.663200570     6.450575893     6.934107687
 C       -4.176788533     6.035943719     8.173851371
 C       -3.022824576     5.253293158     8.263010265
 C       -2.364172641     4.889121332     7.080587854
 C       -2.848274296     5.297888518     5.841374213
 C       -2.478048129     4.796945821     9.537493952
 C       -3.009927935     5.073958270    10.740124109
 C       -2.465288136     4.617705172    12.014581799
 C       -1.313331805     3.832143590    12.104694499
 C       -0.827317211     3.417918839    13.344806880
 C       -1.482053249     3.786043072    14.524282807
 C       -2.637728003     4.574177347    14.436819792
 C       -3.122949250     4.981785631    13.197457564
Si       -0.854047625     3.248005406    16.168655769
 C        0.866655414     2.537421433    16.047747196
 C       -0.864367508     4.754799628    17.331978479
 C       -2.012982371     1.919795564    16.887234480
 C       -4.648892696     5.168834486     2.876297404
 C       -3.469204052     7.978135740     3.481051163
 C       -3.879388109    13.193678314     1.576428026
 C       -3.586006865    13.380026557    -1.504922128
 C       -0.598954582    -0.936663369    -1.545062870
 C       -0.665805813    -0.886218189     1.547619504
 H        1.227259169     2.727703625    -0.295582046
 H        0.276591177     4.963967182    -0.283445974
 H       -3.667047449     3.329242581     0.268526109
 H       -2.753662026     1.074868591     0.304714720
 H       -3.463464260     5.631361969     0.106998189
 H       -0.623126204     6.812352938    -0.256338005
 H       -0.479116359     9.157079061    -0.380248355
 H       -1.466589007    11.381392733    -0.375487023
 H       -5.395725733     9.587109431     0.181978912
 H       -4.371902632     7.386086982     0.110167102
 H       -6.373400865    11.533827320    -1.137806569
 H       -6.785105901    13.382425654     1.345394733
 H       -8.967291501    13.843701264     1.957855102
 H      -11.395313194    13.628595568     1.664234311
 H      -10.731448126    10.923170099    -1.642264284
 H       -8.324936472    11.249620562    -1.418715359
 H      -14.254445316    11.287723073    -1.225047447
 H      -12.892999071    10.152334675    -0.984399540
 H      -12.758853490    11.518680358    -2.144001344
 H      -14.263344949     9.472981604     4.555712499
 H      -13.087170007     8.616383939     5.567199620
 H      -13.210808148     8.231033228     3.817985426
 H      -10.223603673    11.449232419     3.114372133
 H       -7.917698101    10.685345367     2.882020002
 H       -8.881970156     7.072623878     5.019842126
 H      -11.192544125     7.806856655     5.245221949
 H       -6.210386304     9.122851856     3.236892542
 H       -7.011768704     6.535130560     4.790731686
 H       -5.566858247     7.068384112     6.925986907
 H       -4.706381168     6.333040394     9.077005039
 H       -1.463061800     4.281014290     7.129099963
 H       -2.292260926     4.986685773     4.951176980
 H       -1.571886246     4.189557213     9.456172610
 H       -3.915975483     5.681523624    10.821047801
 H       -0.783105669     3.535261962    11.201666698
 H        0.077570621     2.804206334    13.351208692
 H       -3.190527810     4.893066176    15.324946951
 H       -4.022767509     5.592183368    13.149524116
 H      -13.278078769    12.932787744     1.717719688
 H      -14.480940564    11.908954487     0.924853826
 H      -13.672666381     9.949276524     1.919642966
 H      -11.993152626    10.353972548     1.603446749
 H      -12.037550981    12.042477977     3.539372526
 H      -13.704318552    11.543994192     3.900684942
 H        2.263154757    -1.030226449     0.028508037
 H        2.262992228     0.532880841     0.882668109
 H        2.273006867     0.489159632    -0.902069669
 H        1.253028975     2.258343004    17.044208011
 H        1.568914718     3.272027354    15.613475415
 H        0.891787298     1.632417284    15.415905242
 H       -1.939426007     5.094912888    17.387338784
 C       -0.398774456     4.429725709    18.762444916
 C       -0.028121614     5.926300156    16.785952872
 H       -1.536875857     1.592315132    17.856389825
 C       -3.427467417     2.437983565    17.203012924
 C       -2.132837687     0.685935468    15.973893418
 H       -3.611583243     5.130144501     2.431823002
 C       -4.929026481     3.803500369     3.528636391
 C       -5.660286006     5.378020552     1.733665613
 H       -3.901484606     8.337644750     2.501205264
 C       -3.397846687     9.179853547     4.441550228
 C       -2.036896288     7.483624850     3.217492355
 H       -4.423225675    14.182026204     1.556687525
 C       -4.382307611    12.389894744     2.789357417
 C       -2.379144642    13.480886602     1.763112416
 H       -2.479047016    13.475795365    -1.306836553
 C       -3.764868812    12.696218830    -2.872167635
 C       -4.182394694    14.796922474    -1.569416855
 H       -0.077292729    -1.937026805    -1.512291501
 C       -2.115965546    -1.194495632    -1.572076265
 C       -0.196502699    -0.230732733    -2.853042590
 H       -1.788510369    -0.909119915     1.429907491
 C       -0.175403176    -2.338457045     1.682126467
 C       -0.346032456    -0.124438102     2.846742400
 H       -0.997889010     3.648290625    19.247458770
 H       -0.486873862     5.323076667    19.397789002
 H        0.654201759     4.122178272    18.810622042
 H       -0.341685097     6.252721860    15.783844005
 H        1.045817840     5.702416452    16.739605960
 H       -0.133647068     6.802757812    17.441048902
 H       -3.437354727     3.269708382    17.918722315
 H       -4.028143724     1.636298245    17.656856865
 H       -3.974687078     2.757838862    16.305010491
 H       -1.170326439     0.200626258    15.767356329
 H       -2.604127366     0.914686152    15.007066318
 H       -2.764929776    -0.076489504    16.451170424
 H       -4.212777926     3.542564391     4.319938582
 H       -4.857117907     3.005038023     2.776586937
 H       -5.934908657     3.732420458     3.962484963
 H       -5.547630201     6.337845317     1.212220145
 H       -6.702995952     5.323946446     2.079988883
 H       -5.547679933     4.589691604     0.977080137
 H       -4.371878824     9.653138427     4.624790799
 H       -2.744493297     9.956755674     4.018145569
 H       -2.968254135     8.920924520     5.419893833
 H       -1.982282669     6.644192592     2.510708837
 H       -1.509538977     7.187809485     4.134021465
 H       -1.442477405     8.291190576     2.763989817
 H       -5.463743435    12.196849318     2.773076952
 H       -4.181371730    12.942052405     3.718128748
 H       -3.877610337    11.417163652     2.893082166
 H       -1.954874235    14.119708754     0.978405128
 H       -1.772139311    12.566111704     1.818247464
 H       -2.214076794    14.013291790     2.711421945
 H       -3.321504272    11.691490147    -2.917961695
 H       -3.268010650    13.285680478    -3.656080581
 H       -4.817759876    12.609299647    -3.173432952
 H       -4.013849676    15.382409576    -0.656386924
 H       -5.263193150    14.798124235    -1.770992746
 H       -3.717062844    15.364367869    -2.388280785
 H       -2.479359150    -1.755146778    -0.701626419
 H       -2.377757546    -1.796706670    -2.454475307
 H       -2.704443087    -0.269669384    -1.649163682
 H        0.886487346    -0.083687171    -2.954767177
 H       -0.677736519     0.750415798    -2.974303349
 H       -0.506831421    -0.834298719    -3.718012353
 H       -0.427468193    -2.964852495     0.816738679
 H       -0.647697689    -2.814780618     2.553754723
 H        0.908393538    -2.411044662     1.843252891
 H       -0.724273764     0.908231080     2.848252220
 H        0.728602214    -0.083907425     3.067757394
 H       -0.819089361    -0.625656075     3.703429467

