187   

Si        0.000000000     0.000000000     0.000000000
 C        1.865039177     0.000000000     0.000000000
 C       -0.680702850     1.710365491     0.000000000
 C        0.125999584     2.809122863     0.312438222
 C       -0.401426481     4.100295428     0.309033416
 C       -1.744786225     4.321785474    -0.004198664
 C       -2.553071323     3.219719265    -0.313594007
 C       -2.029950242     1.929885043    -0.309436366
 C       -2.340238636     5.653085016    -0.020594427
 C       -1.682169116     6.791490269     0.256663020
 C       -2.287392898     8.118432772     0.237396240
 C       -3.632743006     8.323117389    -0.078001262
 C       -4.176406345     9.607184155    -0.086163549
 C       -3.392772905    10.712035266     0.257744065
 C       -2.043611604    10.510132311     0.581212858
 C       -1.496572343     9.230154700     0.559406579
Si       -4.072483414    12.420255068     0.259094182
 C       -3.667236694    13.278067955     1.822257909
 C       -3.514453540    12.643905117     2.992293953
 C       -3.190052224    13.311626424     4.255110025
 C       -3.057557488    12.527203564     5.411966349
 C       -2.751737441    13.107515306     6.632264425
 C       -2.591015157    14.500235307     6.721685781
 C       -2.719748917    15.290314783     5.575009568
 C       -3.006510932    14.692258232     4.350994838
 N       -2.275599884    15.013464061     8.023546132
 C       -3.494791449    15.163651771     8.850732119
 C       -1.430401125    16.220475139     8.015371907
 C       -4.414675833    16.329129489     8.434518978
 C       -5.873380345    16.102844417     8.876805815
 N       -6.776283878    15.609584085     7.816239146
 C       -6.508924739    14.293598627     7.357992269
 C       -6.498269440    13.254101009     8.309306186
 C       -6.242548151    11.950997437     7.914621772
 C       -6.027334288    11.633133399     6.565358323
 C       -6.074139597    12.662627337     5.622414823
 C       -6.327663693    13.975569751     6.003629592
 C       -7.023748996    16.617256062     6.770579306
 C       -5.761278758    10.239336321     6.204392006
 C       -5.540730880     9.812425792     4.953807743
Si       -5.208269909     8.071471790     4.501801140
 C       -6.014767489     6.863957655     5.628475792
 C       -7.176509516     7.209713263     6.327172615
 C       -7.788762202     6.294252758     7.181945235
 C       -7.264495164     5.009121855     7.345601203
 C       -6.107921781     4.660416324     6.635767055
 C       -5.491932531     5.573812408     5.784328764
 C       -7.871241185     4.018637677     8.228724294
 C       -8.977566889     4.224569769     8.963268784
 C       -9.584821361     3.234602910     9.846545488
 C       -9.059958534     1.950601460    10.014411096
 C       -9.673316291     1.035312830    10.869730253
 C      -10.823798551     1.387962550    11.582065072
 C      -11.352073561     2.675480953    11.416026716
 C      -10.740926879     3.584716053    10.557217331
Si      -11.645780937     0.192542522    12.714864476
 C      -10.572252410    -1.298805442    13.036579646
 C      -12.031996312     1.090382589    14.348455254
 C      -13.284899696    -0.391681057    11.943059518
 C       -5.788852223     7.783281213     2.717055833
 C       -3.321339392     7.812986948     4.569200579
 C       -3.363774576    13.397116711    -1.206603348
 C       -5.971857510    12.377722610     0.111838801
 C       -0.654184510    -0.907104483    -1.540486983
 C       -0.615934702    -0.919135442     1.548923165
 H        1.184475609     2.697992544     0.563713617
 H        0.248312577     4.938733300     0.553545355
 H       -3.602767934     3.370270713    -0.559272393
 H       -2.708556740     1.108906520    -0.557923780
 H       -3.402413976     5.674287484    -0.283754727
 H       -0.620980213     6.773478779     0.519673539
 H       -4.270349194     7.476940933    -0.329276407
 H       -5.230069882     9.703214387    -0.363353018
 H       -1.385110812    11.338560425     0.863243186
 H       -0.444682585     9.093067040     0.802470018
 H       -3.574764238    14.370810540     1.742807372
 H       -3.604147819    11.551230423     3.091828164
 H       -3.203736016    11.445133628     5.357825223
 H       -2.639324909    12.496801418     7.527405485
 H       -2.592619484    16.366765337     5.630267975
 H       -3.096599447    15.318729762     3.464189016
 H       -1.090568795    16.412558446     9.047931419
 H       -1.919866882    17.129004555     7.636053478
 H       -0.532237430    16.025260260     7.403540649
 H       -7.354828801    17.555949672     7.246645607
 H       -7.852245004    16.271816900     6.126137080
 H       -6.150954938    16.838386937     6.136098828
 H       -6.694808713    13.477469955     9.354695515
 H       -6.219722636    11.160876951     8.665722306
 H       -5.907741913    12.445245140     4.564772589
 H       -6.342571971    14.749156093     5.242086585
 H       -5.760956215     9.563412335     7.071035913
 H       -5.537953156    10.512646712     4.102741059
 H       -7.639557980     8.197618599     6.230531491
 H       -8.687202881     6.590344213     7.720425950
 H       -5.685005526     3.663919637     6.747260381
 H       -4.593927834     5.243488271     5.253705582
 H       -7.352893847     3.055832701     8.260901841
 H       -9.496248198     5.187171666     8.930056203
 H       -8.163256115     1.652455326     9.474277497
 H       -9.217009378     0.045594516    10.958570990
 H      -12.248770403     3.007089532    11.947209338
 H      -11.167115058     4.579290936    10.439936780
 H       -4.054363455    14.198926591     8.802141938
 H       -3.167106924    15.286345352     9.905779170
 H       -4.035892304    17.275543565     8.857993593
 H       -4.373569002    16.457546206     7.334790274
 H       -5.917887919    15.392774233     9.732408246
 H       -6.305537434    17.056294534     9.258486999
 H        2.262660612    -1.030023422    -0.038922079
 H        2.275512791     0.480475427     0.905355702
 H        2.260897128     0.541646133    -0.878375589
 H      -11.055341108    -1.990675351    13.749412877
 H       -9.600274883    -1.001256297    13.470368408
 H      -10.369399254    -1.864260368    12.110261066
 H      -12.714479346     1.947406096    14.076146414
 C      -12.767558853     0.210061257    15.374340659
 C      -10.772774326     1.682954506    15.006747094
 H      -13.699501520    -1.161204539    12.656597781
 C      -14.330373686     0.727447058    11.789922466
 C      -13.084220001    -1.068809971    10.574816460
 H       -5.211015207     8.519025435     2.081385449
 C       -5.476387256     6.367134297     2.202599564
 C       -7.290206555     8.065050139     2.533783483
 H       -3.134199581     6.794608703     4.120985680
 C       -2.536586201     8.847067220     3.747896027
 C       -2.779140017     7.812599384     6.009899599
 H       -3.840875442    14.418766761    -1.157651611
 C       -1.838350031    13.582672446    -1.119975735
 C       -3.713715106    12.771232551    -2.568087981
 H       -6.199153929    11.777083254    -0.815124565
 C       -6.642214641    11.687774365     1.313906901
 C       -6.596060577    13.773713528    -0.064221774
 H       -1.778840520    -0.911948106    -1.442657741
 C       -0.298998101    -0.177367614    -2.848644673
 C       -0.183779590    -2.369171844    -1.637860692
 H       -0.124173017    -1.934221723     1.517501286
 C       -0.192403158    -0.223129241     2.855439402
 C       -2.140514158    -1.129162273     1.574325939
 H      -13.718198624    -0.191467099    15.000342957
 H      -13.014609747     0.801914510    16.267776291
 H      -12.162014404    -0.636054214    15.725249614
 H      -10.221130049     2.369041422    14.347973928
 H      -10.066711591     0.915661591    15.350831358
 H      -11.051167597     2.267999618    15.894835287
 H      -14.591427514     1.213543703    12.738421169
 H      -15.267528313     0.313178688    11.390350373
 H      -14.017235907     1.509504828    11.083858915
 H      -12.412960810    -1.936399824    10.611294616
 H      -12.696420601    -0.380131573     9.810289797
 H      -14.046097316    -1.440766158    10.193831897
 H       -4.399627835     6.148505381     2.168209431
 H       -5.847429352     6.248263483     1.174917025
 H       -5.959436060     5.576193529     2.793158119
 H       -7.586465602     9.077724901     2.840221416
 H       -7.926256985     7.356263223     3.082829485
 H       -7.567514114     7.966886392     1.475047819
 H       -2.880740033     8.934486367     2.706835954
 H       -1.477531746     8.558142848     3.691159946
 H       -2.557439086     9.851756769     4.191978733
 H       -3.238643718     7.047127328     6.649608028
 H       -2.902457052     8.781815120     6.514213997
 H       -1.700591918     7.601401149     6.004980972
 H       -1.506546553    14.051961602    -0.183878991
 H       -1.492928231    14.238490558    -1.932165030
 H       -1.287072799    12.638595898    -1.235265793
 H       -4.793711028    12.687714656    -2.745559272
 H       -3.275224510    11.772489083    -2.706368865
 H       -3.316533029    13.394360282    -3.382643740
 H       -6.283336587    10.663826668     1.491766517
 H       -7.725597958    11.608048701     1.146877239
 H       -6.516212301    12.250304637     2.250879319
 H       -6.239113149    14.302646018    -0.956766961
 H       -6.432432536    14.428866157     0.802873929
 H       -7.686157854    13.685697687    -0.179991495
 H       -0.655801128     0.862182089    -2.876228043
 H       -0.768125889    -0.685412346    -3.703265617
 H        0.779808094    -0.162068542    -3.052846018
 H       -0.464311216    -2.975449840    -0.766878992
 H        0.901855496    -2.461709471    -1.774324463
 H       -0.644915111    -2.854157616    -2.510611501
 H        0.894211596    -0.104317749     2.954796383
 H       -0.516333557    -0.818432639     3.721248855
 H       -0.648445955     0.769852820     2.977390782
 H       -2.516715346    -1.697516404     0.714308854
 H       -2.700958346    -0.185076380     1.626650884
 H       -2.425374453    -1.703105627     2.468289201

