187   

Si        0.000000000     0.000000000     0.000000000
 C        1.865120748     0.000000000     0.000000000
 C       -0.678606792     1.711312813     0.000000000
 C        0.119468586     2.804388412     0.352164372
 C       -0.405530335     4.096635626     0.348570141
 C       -1.738919144     4.325054547    -0.000898153
 C       -2.538672062     3.228229199    -0.348995772
 C       -2.017406047     1.937483207    -0.347232740
 C       -2.331824747     5.658165897    -0.019032115
 C       -1.679144110     6.791324654     0.290786303
 C       -2.274200561     8.123540747     0.271947778
 C       -3.608351376     8.347186070    -0.078266818
 C       -4.137602529     9.637722433    -0.083247387
 C       -3.345137014    10.731099606     0.276869421
 C       -2.006856993    10.510134647     0.631412680
 C       -1.478927604     9.222475199     0.624011800
Si       -4.007135819    12.446464399     0.282427088
 C       -3.305797790    13.421372259     1.664431966
 C       -2.932447945    12.863410438     2.823548793
 C       -2.367120845    13.596158345     3.958416095
 C       -2.023652865    12.869356433     5.108701269
 C       -1.484619230    13.504723869     6.215673397
 C       -1.265292754    14.893348799     6.189007390
 C       -1.614170021    15.626726491     5.049600710
 C       -2.174841771    14.979728522     3.951785655
 N       -0.705598407    15.464682282     7.375722042
 C        0.740290414    15.171513763     7.508476299
 C       -1.023594836    16.887996460     7.585684680
 C        1.643148310    15.936163908     6.521166425
 C        2.743195626    15.061118428     5.891423118
 N        2.338922428    14.281587645     4.704584229
 C        1.687784384    14.977901938     3.670970864
 C        2.003278626    16.333147569     3.430303657
 C        1.369611004    17.030898024     2.415609465
 C        0.443905952    16.403311021     1.570858547
 C        0.162648162    15.051150291     1.783485845
 C        0.780205899    14.339854572     2.803595490
 C        1.822679937    12.941095238     5.025765423
 C       -0.190682800    17.195887935     0.518370921
 C       -1.089567144    16.719578566    -0.353430924
Si       -1.864888199    17.737669739    -1.658586273
 C       -2.003037594    19.496463983    -1.138365748
 C       -2.268084988    19.798151829     0.204664174
 C       -2.377032563    21.121451370     0.622075247
 C       -2.237657003    22.175100185    -0.291359362
 C       -1.981907562    21.870726717    -1.630985188
 C       -1.867469878    20.545887222    -2.051677732
 C       -2.360145006    23.545751634     0.194108812
 C       -2.243583779    24.642305073    -0.573898124
 C       -2.365861085    26.013329873    -0.089613147
 C       -2.621528958    26.320512012     1.249215044
 C       -2.730696212    27.646338679     1.668601449
 C       -2.592642604    28.695237662     0.754173385
 C       -2.336863283    28.389786495    -0.589542053
 C       -2.222749529    27.065792462    -1.003913268
Si       -2.733977915    30.450245273     1.291713792
 C       -3.459181365    30.587136082     3.004843216
 C       -1.008178002    31.253446063     1.291053662
 C       -3.830528893    31.371892565     0.037950534
 C       -0.846580906    17.590964203    -3.257483358
 C       -3.610834599    17.055123724    -1.980812955
 C       -3.498272291    13.281276378    -1.348708442
 C       -5.901299006    12.458657129     0.423266815
 C       -0.652244195    -0.907662747    -1.541308987
 C       -0.619693730    -0.919804416     1.546767523
 H        1.169704313     2.688435385     0.633798404
 H        0.237705710     4.930787310     0.622740674
 H       -3.580114641     3.384045560    -0.624227721
 H       -2.689361837     1.121510282    -0.627786028
 H       -3.385479453     5.685688981    -0.312364607
 H       -0.625486197     6.764733869     0.583504005
 H       -4.248046479     7.511115559    -0.354768641
 H       -5.185874160     9.749884042    -0.372976730
 H       -1.340131318    11.330138355     0.921494182
 H       -0.436588709     9.069585499     0.897766274
 H       -3.227627507    14.505483509     1.493155617
 H       -3.013572294    11.782429512     3.013306017
 H       -2.188483689    11.791915420     5.137494657
 H       -1.244622713    12.943254671     7.116657951
 H       -1.446034028    16.699486329     5.008317626
 H       -2.442042752    15.566958859     3.071137116
 H       -0.723246931    17.164127501     8.611379411
 H       -2.116746325    17.027711840     7.514507489
 H       -0.535321756    17.580288310     6.883199241
 H        2.393606247    12.501859662     5.859142620
 H        1.972112166    12.279968693     4.151915049
 H        0.750986534    12.936173920     5.293161294
 H        2.745800148    16.838999972     4.039770005
 H        1.610980785    18.084068430     2.264738237
 H       -0.554797811    14.534503044     1.142150410
 H        0.524749044    13.292628779     2.938239395
 H        0.141169378    18.244598098     0.512942652
 H       -1.402139233    15.664334518    -0.338974693
 H       -2.389510924    19.015130000     0.961598078
 H       -2.575893940    21.337428131     1.670010004
 H       -1.869741052    22.670048760    -2.361107602
 H       -1.666686496    20.370896991    -3.112115574
 H       -2.561514181    23.635361724     1.265550488
 H       -2.042594922    24.552271557    -1.645511254
 H       -2.737611676    25.522260758     1.979959424
 H       -2.930664022    27.824003623     2.728860270
 H       -2.220299302    29.168180214    -1.348961603
 H       -2.022272340    26.848466118    -2.051350167
 H        1.027065236    15.409083313     8.556983671
 H        0.875895950    14.073281199     7.393964390
 H        1.020523007    16.380703434     5.715836762
 H        2.110096676    16.797956358     7.031393022
 H        3.596845830    15.709454388     5.575629620
 H        3.165662533    14.366310972     6.649909808
 H        2.262953862    -1.029639213    -0.044546361
 H        2.275882997     0.475927034     0.907543498
 H        2.260184789     0.546612915    -0.875717368
 H       -3.579480198    31.644056060     3.302881583
 H       -2.819136640    30.099474118     3.760794548
 H       -4.456939492    30.114065066     3.051336755
 H       -1.159568128    32.300758757     1.682744576
 C       -0.021571489    30.531460720     2.227129716
 C       -0.375239752    31.354860608    -0.108244969
 H       -3.302145759    31.286686185    -0.956037759
 C       -5.221385239    30.729440689    -0.112251076
 C       -4.000838245    32.868392361     0.354188435
 H       -1.381048741    18.219823331    -4.026699834
 C        0.579778852    18.145356139    -3.091293452
 C       -0.760973352    16.152752596    -3.798945459
 H       -3.466904495    15.983354369    -2.309295736
 C       -4.482742222    17.057597363    -0.712406157
 C       -4.356232094    17.797497627    -3.102382821
 H       -3.763313315    14.372758911    -1.225512985
 C       -1.986575980    13.173414521    -1.613448581
 C       -4.255169548    12.745112980    -2.575480445
 H       -6.284347973    11.859349854    -0.452699046
 C       -6.395905846    11.785628089     1.715966073
 C       -6.506790861    13.870961241     0.331872065
 H       -1.776852009    -0.915393420    -1.443557171
 C       -0.298392847    -0.176915776    -2.849212655
 C       -0.178863234    -2.368812260    -1.639384328
 H       -0.135180493    -1.938190041     1.511560111
 C       -0.189851144    -0.231466559     2.855268827
 C       -2.145840967    -1.118229200     1.572181473
 H       -0.362116644    30.486348314     3.269536783
 H        0.941175807    31.062304804     2.241457571
 H        0.198812703    29.503715531     1.904323027
 H       -0.981320494    31.928446962    -0.820799388
 H       -0.168296164    30.372066833    -0.554829633
 H        0.593599827    31.871670453    -0.045141816
 H       -5.180702759    29.666769508    -0.391438909
 H       -5.786080262    31.234397511    -0.908909296
 H       -5.831690179    30.809002116     0.797095045
 H       -3.049119457    33.412434038     0.410188105
 H       -4.545044541    33.048895192     1.290684923
 H       -4.586356614    33.355016092    -0.439482434
 H        0.607332099    19.191700444    -2.757217107
 H        1.111643574    18.115553246    -4.052537109
 H        1.185492812    17.558511631    -2.385021269
 H       -1.741333418    15.711139062    -4.018603446
 H       -0.225958113    15.473671966    -3.119692397
 H       -0.201775997    16.141055216    -4.745789423
 H       -4.035556151    16.508508894     0.128168533
 H       -5.449802126    16.577061375    -0.918394794
 H       -4.715269284    18.072228625    -0.358280378
 H       -3.838102249    17.761396877    -4.069142978
 H       -4.544945514    18.854330559    -2.865422410
 H       -5.342836058    17.340367980    -3.266073242
 H       -1.364673106    13.558986645    -0.793802342
 H       -1.717647339    13.756403787    -2.506582186
 H       -1.662541626    12.141770104    -1.813783579
 H       -5.343194302    12.870314174    -2.507103129
 H       -4.053791290    11.683156503    -2.773863546
 H       -3.941013840    13.289098945    -3.478401730
 H       -6.051456807    10.748590771     1.829897828
 H       -7.494310484    11.746911527     1.725747099
 H       -6.099115276    12.332772109     2.622835455
 H       -6.265763067    14.387549791    -0.606510184
 H       -6.201635861    14.521694031     1.163538627
 H       -7.603906576    13.812647722     0.376253537
 H       -0.655504309     0.862595248    -2.875878348
 H       -0.767626844    -0.684621775    -3.703918119
 H        0.780353262    -0.160924800    -3.053812639
 H       -0.459036344    -2.976241310    -0.769124739
 H        0.907054078    -2.459185800    -1.774939473
 H       -0.638269792    -2.853979919    -2.512922082
 H        0.897737332    -0.122205023     2.954363243
 H       -0.518431203    -0.826716957     3.719322934
 H       -0.637647878     0.764920181     2.980425168
 H       -2.526291940    -1.683759401     0.712210856
 H       -2.698850649    -0.169631948     1.623822935
 H       -2.435267021    -1.689667085     2.466210086

