187   

Si        0.000000000     0.000000000     0.000000000
 C        1.865283619     0.000000000     0.000000000
 C       -0.676923201     1.711806497     0.000000000
 C        0.115903822     2.800262508     0.377640141
 C       -0.406454813     4.093570589     0.374266457
 C       -1.731997020     4.327846234    -0.000492474
 C       -2.526560747     3.235491734    -0.373668223
 C       -2.008090998     1.943587369    -0.371703861
 C       -2.321815871     5.662232281    -0.019435377
 C       -1.673802587     6.791622451     0.313238681
 C       -2.267153385     8.124658322     0.293059981
 C       -1.477344336     9.220373525     0.664787665
 C       -2.001329204    10.510886677     0.660583841
 C       -3.326074533    10.737619280     0.269338330
 C       -4.116179996     9.644331412    -0.104741059
 C       -3.592684195     8.352727918    -0.087829373
Si       -4.045603848    12.428073636     0.253327778
 C       -5.270874378    12.646508868    -1.086903799
 C       -5.229483818    11.997742275    -2.258372236
 C       -6.209407797    12.171998184    -3.331072583
 C       -6.059684440    11.435336994    -4.514146318
 C       -6.960194619    11.564059124    -5.559504125
 C       -8.037866293    12.471523265    -5.468948428
 C       -8.204894931    13.187219612    -4.268543308
 C       -7.328670769    12.999328401    -3.207597715
 N       -8.950058947    12.597309775    -6.536068711
 C       -8.413891275    12.376681469    -7.896323107
 C       -9.876905096    13.741658133    -6.463853859
 C       -7.141563156    13.169128162    -8.253623843
 C       -7.419569993    14.595486061    -8.767957160
 N       -6.517156638    15.644799691    -8.235323698
 C       -6.810920739    15.936846673    -6.860101908
 C       -7.814232545    16.892694563    -6.635248413
 C       -8.162973128    17.236282817    -5.337408504
 C       -7.559865106    16.603589163    -4.240618064
 C       -6.550433013    15.666159307    -4.477309106
 C       -6.146169417    15.361152254    -5.773055460
 C       -5.093365186    15.372130881    -8.501430984
 C       -7.961676075    17.001110475    -2.888205050
 C       -7.454822406    16.467128849    -1.769946049
Si       -7.920125986    16.925829354    -0.061869621
 C       -6.377510689    17.248025939     0.883404827
 C       -5.327891498    17.946048813     0.275371854
 C       -4.149960502    18.200102086     0.976203165
 C       -3.993256442    17.759767665     2.294079734
 C       -5.046068173    17.061710678     2.899489315
 C       -6.226218884    16.810284748     2.204217544
 C       -2.779105248    18.002719551     3.065312283
 C       -1.699623420    18.657189366     2.604743013
 C       -0.485101402    18.900355749     3.375844339
 C       -0.329926748    18.464766678     4.694325820
 C        0.848873892    18.718970610     5.395195567
 C        1.898009734    19.419858359     4.792022821
 C        1.744927971    19.857068618     3.469272885
 C        0.569292682    19.597294765     2.770644342
Si        3.459588171    19.762492560     5.705263250
 C        3.257826006    19.478964309     7.537712818
 C        4.833265762    18.617408271     5.053703314
 C        3.967426038    21.566353680     5.371030516
 C       -8.968690606    18.515042214    -0.042913322
 C       -8.975976700    15.540631168     0.699541561
 C       -4.874199743    12.811417238     1.919483291
 C       -2.672703846    13.718509216    -0.029714554
 C       -0.651774642    -0.909007932    -1.540747005
 C       -0.621924679    -0.917926149     1.546958395
 H        1.159893708     2.679780063     0.679655216
 H        0.232455818     4.924035456     0.669145167
 H       -3.561992855     3.395824404    -0.668300089
 H       -2.676127319     1.131418751    -0.671690602
 H       -3.369357320     5.694269319    -0.333546135
 H       -0.626684158     6.761023637     0.627937779
 H       -0.442874334     9.064447555     0.964218012
 H       -1.339934077    11.325724614     0.968234490
 H       -5.159179403     9.762621016    -0.418166065
 H       -4.228575252     7.518792632    -0.379046396
 H       -6.052770194    13.391098963    -0.871710986
 H       -4.449249590    11.263244951    -2.502329540
 H       -5.220935662    10.745797324    -4.617836998
 H       -6.833848087    10.952566785    -6.447756575
 H       -9.026872949    13.886932441    -4.146452321
 H       -7.512702758    13.535791364    -2.274408238
 H      -10.519278308    13.767214378    -7.358257730
 H       -9.364707187    14.716321554    -6.371568780
 H      -10.545896940    13.608352703    -5.594158053
 H       -4.940536931    15.363547083    -9.594434111
 H       -4.715475134    14.423878212    -8.090767769
 H       -4.486481838    16.197378337    -8.089035074
 H       -8.295321068    17.369828863    -7.487400780
 H       -8.923338576    17.998684692    -5.172746828
 H       -6.042097818    15.180688362    -3.640211974
 H       -5.339048441    14.649493319    -5.928942465
 H       -8.730757926    17.783621745    -2.880303806
 H       -6.681007585    15.679992076    -1.815460392
 H       -5.391080824    18.306425661    -0.757042556
 H       -3.347551924    18.747055244     0.484578977
 H       -4.943613724    16.710380548     3.924332820
 H       -7.013993333    16.262672132     2.728694164
 H       -2.796269054    17.604698680     4.084030617
 H       -1.681883811    19.055463731     1.585877380
 H       -1.132905871    17.920390431     5.188005021
 H        0.911873142    18.353083552     6.423803907
 H        2.531235792    20.409270590     2.946682139
 H        0.469986213    19.942964522     1.743323963
 H       -8.206348009    11.282835715    -7.986043514
 H       -9.218835088    12.585132203    -8.634395054
 H       -6.478239863    13.216057875    -7.364576795
 H       -6.565234757    12.607344476    -9.011186798
 H       -7.331234550    14.627153288    -9.876666464
 H       -8.463170590    14.900757930    -8.532995358
 H        2.263231944    -1.029152683    -0.051882015
 H        2.275966387     0.469694369     0.910799388
 H        2.259951499     0.553096586    -0.871769716
 H        4.181819709    19.738375425     8.084932071
 H        3.021579598    18.424840127     7.765675170
 H        2.443336960    20.103685624     7.947523117
 H        5.740742087    18.838077054     5.686999303
 C        4.486441071    17.126464077     5.219688790
 C        5.204604616    18.876232869     3.582581712
 H        4.123740282    21.642204901     4.255561554
 C        2.867336232    22.569998206     5.761269959
 C        5.283161560    21.971295523     6.059184838
 H       -9.852582305    18.312193461    -0.714009409
 C       -9.504072350    18.867179211     1.356312971
 C       -8.213351973    19.734231550    -0.601899333
 H       -9.234668880    15.893521657     1.740215537
 C      -10.293183332    15.314144758    -0.066085918
 C       -8.245262904    14.194620344     0.823766634
 H       -5.337129418    13.836456706     1.802525507
 C       -5.992056376    11.811723266     2.264082313
 C       -3.881329661    12.878309004     3.092806147
 H       -1.965297943    13.621206249     0.843156933
 C       -1.880333468    13.458867575    -1.323556905
 C       -3.204723542    15.160049693    -0.054331320
 H       -1.776515665    -0.915223558    -1.444373081
 C       -0.295360556    -0.180953502    -2.849472010
 C       -0.180702844    -2.371183649    -1.636112318
 H       -0.141285593    -1.938024812     1.512145964
 C       -0.189869721    -0.230914352     2.855425197
 C       -2.148912652    -1.110459686     1.571675058
 H        4.288318428    16.837380436     6.259800265
 H        5.328118603    16.504058920     4.883387625
 H        3.618567712    16.820387195     4.618011213
 H        5.554909877    19.899116180     3.395022284
 H        4.376036991    18.670381928     2.890370243
 H        6.026772808    18.211012221     3.280533626
 H        1.906955077    22.377150348     5.262042297
 H        3.165105558    23.587680826     5.470949450
 H        2.677427869    22.600303107     6.842378955
 H        6.134568871    21.338777781     5.776538428
 H        5.212328989    21.966933639     7.154967802
 H        5.555304156    22.997889447     5.773463471
 H      -10.149662364    18.090375112     1.785311316
 H      -10.116564345    19.779373213     1.306008451
 H       -8.704717716    19.076918067     2.081265114
 H       -7.822915448    19.583284762    -1.617422637
 H       -7.370012128    20.039893586     0.034354334
 H       -8.886052371    20.601905164    -0.656135198
 H      -10.936541099    16.202048224    -0.102523334
 H      -10.885386715    14.530670447     0.428412092
 H      -10.136033651    14.973075547    -1.099704529
 H       -7.291704238    14.262855789     1.366276370
 H       -8.047635386    13.725186310    -0.150467452
 H       -8.863760479    13.479313711     1.385041007
 H       -6.768217309    11.738737451     1.489971909
 H       -6.502145849    12.118439849     3.187867890
 H       -5.612667916    10.796124280     2.446797062
 H       -3.116000298    13.656418326     2.968803954
 H       -3.364945726    11.925653582     3.274161548
 H       -4.414625868    13.119826771     4.023357399
 H       -1.417653376    12.463654331    -1.361461816
 H       -1.059029711    14.183682403    -1.413015698
 H       -2.494053542    13.573229330    -2.228978477
 H       -3.735954819    15.448879906     0.864665430
 H       -3.878137673    15.357365807    -0.900151042
 H       -2.370168702    15.869043234    -0.151728937
 H       -0.650681405     0.859161417    -2.877937007
 H       -0.764443847    -0.689164099    -3.703886797
 H        0.783643605    -0.166931426    -3.052733420
 H       -0.463471952    -2.976831540    -0.765459917
 H        0.905255966    -2.463580344    -1.769591659
 H       -0.639471618    -2.856695215    -2.509734257
 H        0.898192251    -0.127748213     2.955606358
 H       -0.522886549    -0.823456169     3.719604498
 H       -0.632219354     0.768172026     2.979164390
 H       -2.530501733    -1.677994241     0.713570699
 H       -2.698357513    -0.159439475     1.618524953
 H       -2.441574557    -1.676931478     2.467737005

