187   

Si        0.000000000     0.000000000     0.000000000
 C        1.865371701     0.000000000     0.000000000
 C       -0.674750003     1.712842505     0.000000000
 C        0.145079247     2.810719355     0.279619252
 C       -0.376250951     4.104323460     0.276999452
 C       -1.727319957     4.329912707     0.001084859
 C       -2.548291218     3.228493256    -0.275686271
 C       -2.030463560     1.936227196    -0.276168235
 C       -2.314923428     5.665608857    -0.012398858
 C       -1.637504537     6.799915026     0.233305838
 C       -2.219949271     8.137553822     0.221116971
 C       -3.570034632     8.370805727    -0.053923097
 C       -4.083690118     9.667494572    -0.054599781
 C       -3.258525317    10.758873641     0.234184039
 C       -1.904415964    10.527847552     0.511913117
 C       -1.392373115     9.233546603     0.499838670
Si       -3.903932160    12.481710577     0.241812166
 C       -3.049715170    13.518503226     1.482723000
 C       -2.536061840    13.047280887     2.627098492
 C       -1.851435106    13.871118788     3.624236559
 C       -1.356840301    13.257248502     4.784401463
 C       -0.701229804    13.989919809     5.759740026
 C       -0.469115204    15.371540171     5.581540139
 C       -0.962938982    15.987658345     4.416221656
 C       -1.660400173    15.246252193     3.470403087
 N        0.197720609    16.101120717     6.580872275
 C        1.226725003    15.393895329     7.364753699
 C        0.533364507    17.500251878     6.277719461
 C        2.350692351    14.749260227     6.535248404
 C        3.481585655    15.722717084     6.160595949
 N        4.532444717    15.881163743     7.181709906
 C        5.216049132    14.726094076     7.596537109
 C        5.392517246    13.649875967     6.699484423
 C        6.064962174    12.506564171     7.098379116
 C        6.630739338    12.405236251     8.377564689
 C        6.482458295    13.483476058     9.253571003
 C        5.794562257    14.630003204     8.876885203
 C        4.215361347    16.879013998     8.214456933
 C        7.329964014    11.173329415     8.745131659
 C        7.908782466    10.961175338     9.934856495
Si        8.782031850     9.421191913    10.392285423
 C        9.549622621     8.602967635     8.934461670
 C       10.018170143     9.376829006     7.866370948
 C       10.602075372     8.771052342     6.755076727
 C       10.744314046     7.381972170     6.691272065
 C       10.283277865     6.609949074     7.765505098
 C        9.694976632     7.211756722     8.875285154
 C       11.348876982     6.704671173     5.549010154
 C       11.829568830     7.324969605     4.458088961
 C       12.434130417     6.647584739     3.315843059
 C       12.572274025     5.258803003     3.249390762
 C       13.156723758     4.652484512     2.137492182
 C       13.609612651     5.423662037     1.062526606
 C       13.470869790     6.816895997     1.126080976
 C       12.892621351     7.419535877     2.239718186
Si       14.383168495     4.639246132    -0.412249985
 C       14.119120132     2.792652024    -0.425818107
 C       13.623425957     5.423862865    -1.971346271
 C       16.254379906     4.988472991    -0.408926103
 C       10.151559673     9.856330931    11.638881379
 C        7.545617400     8.241522512    11.228881369
 C       -3.622298340    13.246929797    -1.476912774
 C       -5.769592564    12.485340815     0.613668455
 C       -0.657851464    -0.900807813    -1.542488891
 C       -0.613038902    -0.923577525     1.547253369
 H        1.209661575     2.697699889     0.502948534
 H        0.284175097     4.941846112     0.494809775
 H       -3.603493962     3.381955826    -0.493424498
 H       -2.718822749     1.116647271    -0.500701865
 H       -3.383547749     5.693782747    -0.243626872
 H       -0.568366067     6.769652992     0.464371519
 H       -4.234236022     7.537220388    -0.273575935
 H       -5.145998636     9.787387657    -0.283499669
 H       -1.212180192    11.344910758     0.742669308
 H       -0.337176539     9.073843436     0.713822819
 H       -2.997934299    14.588084344     1.230618214
 H       -2.584163906    11.984392247     2.905606675
 H       -1.501021134    12.185347938     4.930208872
 H       -0.364438388    13.490093899     6.663732502
 H       -0.814235584    17.047652287     4.241075882
 H       -2.047503076    15.752277464     2.584774305
 H        1.048336531    17.961473427     7.136490376
 H       -0.403442591    18.069626397     6.127092122
 H        1.165568574    17.619740237     5.382577116
 H        3.663170715    17.723836628     7.771199975
 H        5.159477614    17.293440463     8.616023955
 H        3.624181564    16.473187626     9.051858648
 H        4.996511712    13.706942606     5.689471086
 H        6.167565836    11.677212135     6.396496234
 H        6.913539844    13.432527743    10.254587921
 H        5.704784522    15.442169921     9.590185352
 H        7.342487826    10.427062596     7.937566584
 H        7.874259525    11.721010956    10.729978724
 H        9.939854265    10.469578543     7.863391444
 H       10.951407285     9.394118226     5.933659838
 H       10.385140259     5.526935222     7.736096376
 H        9.354699602     6.557695011     9.682553665
 H       11.391465775     5.614838011     5.633343115
 H       11.787559519     8.414954166     4.373769415
 H       12.223839658     4.635311217     4.070685834
 H       13.238814868     3.562088208     2.143956055
 H       13.805545370     7.470228555     0.315269929
 H       12.795010228     8.503099224     2.271405908
 H        1.649241923    16.098118212     8.114094435
 H        0.706031857    14.608091357     7.964032222
 H        2.768917135    13.886944816     7.094188336
 H        1.926569324    14.307856862     5.609992004
 H        3.977924433    15.378169655     5.221232353
 H        3.069406585    16.726444659     5.918002803
 H        2.263504424    -1.029613069    -0.041029881
 H        2.274968542     0.478686829     0.906796718
 H        2.261293341     0.543723548    -0.877028867
 H       14.547704931     2.336036815    -1.335827021
 H       13.041903593     2.546413934    -0.407364368
 H       14.591695124     2.305086525     0.444779587
 H       13.864519688     6.525142839    -1.912028814
 C       14.217355522     4.881642439    -3.283501274
 C       12.091437492     5.279576447    -2.016566595
 H       16.669487300     4.430202320    -1.297346115
 C       16.605920615     6.477587525    -0.575800530
 C       16.950974617     4.456391386     0.857012419
 H        9.633624272    10.342930867    12.514947043
 C       10.911527641     8.622956573    12.157040396
 C       11.163998762    10.862567966    11.062712877
 H        8.141563591     7.339465263    11.551217697
 C        6.884022025     8.844734086    12.480861658
 C        6.445445428     7.768723412    10.261836889
 H       -4.036774163    14.294763348    -1.423946978
 C       -2.128090927    13.341484935    -1.834687212
 C       -4.358920343    12.497019622    -2.600304598
 H       -6.252513410    11.874832683    -0.202979412
 C       -6.096890401    11.823835492     1.964388360
 C       -6.391292217    13.893032938     0.583988681
 H       -1.782583414    -0.898287631    -1.445606414
 C       -0.296868665    -0.171779816    -2.849445895
 C       -0.196986335    -2.365877738    -1.641556809
 H       -0.116875261    -1.936466322     1.513826252
 C       -0.191537054    -0.228449026     2.854938479
 C       -2.136636847    -1.140373219     1.573488960
 H       15.304334906     5.015696860    -3.356909417
 H       13.783494308     5.416551626    -4.140930522
 H       13.999859598     3.817489332    -3.444653909
 H       11.589885485     5.699722375    -1.132942865
 H       11.761014886     4.237585476    -2.120036259
 H       11.687196726     5.819802257    -2.884510373
 H       16.215602444     6.916506489    -1.502669495
 H       17.697924491     6.603202598    -0.613894968
 H       16.257148200     7.094986314     0.264022280
 H       16.819305466     3.377117901     1.006951159
 H       16.615787535     4.962967959     1.773618587
 H       18.035085375     4.627003533     0.790443479
 H       10.267274354     7.897661437    12.669993837
 H       11.671761811     8.929968812    12.889934636
 H       11.451733918     8.088067632    11.362671242
 H       10.702374035    11.799011585    10.720798462
 H       11.742781455    10.452214585    10.222560511
 H       11.897115566    11.142876682    11.832234634
 H        7.603392268     9.139555016    13.255351522
 H        6.218286054     8.104120050    12.947100611
 H        6.257926574     9.718917997    12.253508436
 H        6.837264581     7.270865211     9.363921690
 H        5.791842030     8.586887073     9.925932911
 H        5.793168689     7.037546357    10.759487425
 H       -1.540060135    13.915101212    -1.105329610
 H       -2.003002715    13.850557506    -2.800807993
 H       -1.652249832    12.356097165    -1.943511196
 H       -5.447779331    12.470992009    -2.465727254
 H       -4.011914851    11.460884806    -2.722787113
 H       -4.180980531    12.994515764    -3.564713650
 H       -5.736448060    10.788775091     2.043302441
 H       -7.185230825    11.783044894     2.111439608
 H       -5.690404536    12.380282321     2.821684306
 H       -6.267954621    14.404134349    -0.379198194
 H       -5.992791382    14.552385609     1.367912971
 H       -7.474850537    13.828523101     0.759746627
 H       -0.646047428     0.870471984    -2.875351430
 H       -0.769443749    -0.674925988    -3.704966414
 H        0.782121671    -0.164033771    -3.052996452
 H       -0.483785165    -2.971772845    -0.772389745
 H        0.888350019    -2.465333898    -1.775322444
 H       -0.659067251    -2.846050511    -2.516396186
 H        0.894751465    -0.106672475     2.954380360
 H       -0.513887075    -0.825782507     3.719835768
 H       -0.650143841     0.763306751     2.978169797
 H       -2.511711786    -1.705305725     0.710835589
 H       -2.700530446    -0.198716164     1.632034857
 H       -2.417699515    -1.720393977     2.464662698

