187   

Si        0.000000000     0.000000000     0.000000000
 C        1.865127999     0.000000000     0.000000000
 C       -0.679063754     1.710959038     0.000000000
 C        0.102362176     2.795433319    -0.411486932
 C       -0.420547780     4.088518837    -0.408194502
 C       -1.735137957     4.326621046     0.001258303
 C       -2.518464823     3.238208595     0.408156980
 C       -1.999753874     1.946426481     0.405214226
 C       -2.325470870     5.660765857     0.021709458
 C       -1.688664758     6.786994230    -0.341964340
 C       -2.283461338     8.119426189    -0.319787152
 C       -1.505867872     9.212213570    -0.726254248
 C       -2.031491669    10.501535487    -0.721549923
 C       -3.352478822    10.727120071    -0.314098760
 C       -4.130641770     9.638545191     0.092831913
 C       -3.598753773     8.349575970     0.092497632
Si       -4.052578007    12.428084251    -0.305689224
 C       -5.876114863    12.346022771    -0.211103972
 C       -6.649754094    13.020414620     0.649583643
 C       -8.110030713    12.923380014     0.689088985
 C       -8.815298728    13.678913663     1.636552297
 C      -10.197280284    13.622343727     1.714738013
 C      -10.934168025    12.834847709     0.804341942
 C      -10.226686076    12.076642640    -0.147182647
 C       -8.838359018    12.108792758    -0.181898208
 N      -12.338924311    12.787336162     0.896375952
 C      -13.019238994    14.022294331     1.327240912
 C      -13.054531170    12.100365893    -0.192597145
 C      -12.824652559    15.189556807     0.346221701
 C      -13.517755801    16.457393319     0.870661401
 N      -13.531327502    17.557169047    -0.110854855
 C      -14.238399974    17.335911594    -1.308067517
 C      -15.370700788    16.493414198    -1.317047130
 C      -16.072091577    16.270455405    -2.491039585
 C      -15.711940584    16.910302417    -3.685060467
 C      -14.609343470    17.769196942    -3.668052574
 C      -13.884141263    17.988895891    -2.504311472
 C      -12.224550479    18.227697229    -0.225861970
 C      -16.487080341    16.638876314    -4.896907557
 C      -16.233157716    17.192603932    -6.089681727
Si      -17.165410558    16.891022983    -7.632186112
 C      -15.999411273    16.483360955    -8.995169681
 C      -14.708763745    16.022621955    -8.707974154
 C      -13.825370389    15.713759712    -9.739436060
 C      -14.211897927    15.847499540   -11.079226680
 C      -15.503497567    16.301828955   -11.361908264
 C      -16.389400160    16.615619282   -10.332348762
 C      -13.250657420    15.511479866   -12.124452567
 C      -13.492629185    15.598716169   -13.443432348
 C      -12.531708637    15.262809271   -14.488865086
 C      -11.240487621    14.808616741   -14.208475082
 C      -10.353745978    14.498751680   -15.239626969
 C      -10.738254567    14.643387038   -16.576182427
 C      -12.032757369    15.099536047   -16.860073516
 C      -12.917481021    15.402342901   -15.828965808
Si       -9.580505762    14.238973490   -17.949024559
 C       -7.834136242    14.017215260   -17.332015439
 C      -10.137543616    12.627527542   -18.795443515
 C       -9.653776487    15.649528561   -19.225196249
 C      -18.401034987    15.460722969    -7.422375200
 C      -18.129570095    18.470580542    -8.075711050
 C       -3.331432450    13.397836662     1.162587200
 C       -3.571414421    13.311161510    -1.921353834
 C       -0.622762023    -0.916573358    -1.547477619
 C       -0.649719218    -0.913590433     1.539145747
 H        1.137731353     2.671861908    -0.740751005
 H        0.209368431     4.915721790    -0.730201955
 H       -3.545299073     3.401429082     0.730151487
 H       -2.659119168     1.137344516     0.731707481
 H       -3.363595430     5.695472523     0.365835934
 H       -0.651039753     6.754027371    -0.686177086
 H       -0.478928314     9.054218685    -1.049582607
 H       -1.378409312    11.315256821    -1.048454824
 H       -5.167297737     9.757418241     0.425056694
 H       -4.222923455     7.518792644     0.416691039
 H       -6.319284700    11.672931011    -0.964297652
 H       -6.241924709    13.704477495     1.405251088
 H       -8.269143309    14.314462754     2.334336859
 H      -10.709295666    14.193275500     2.483837530
 H      -10.752193921    11.452549966    -0.863060927
 H       -8.315218815    11.497472012    -0.919488551
 H      -14.140174804    12.119151779     0.002432742
 H      -12.752875529    11.037425508    -0.211154818
 H      -12.874111683    12.541961361    -1.186607405
 H      -11.763462276    18.328397189     0.771067341
 H      -12.375069687    19.252254650    -0.611591174
 H      -11.515826186    17.697294191    -0.883078942
 H      -15.698586593    16.005042553    -0.404219392
 H      -16.928892642    15.596070835    -2.477736290
 H      -14.306116557    18.281654148    -4.582966707
 H      -13.034952577    18.664189708    -2.537802539
 H      -17.306161267    15.926252287    -4.734597265
 H      -15.407303199    17.912909441    -6.216348701
 H      -14.354163427    15.894417725    -7.679984129
 H      -12.824196764    15.361553303    -9.498064578
 H      -15.828655801    16.414476932   -12.394383204
 H      -17.385529364    16.967326147   -10.614565559
 H      -12.278245110    15.168970391   -11.758412503
 H      -14.465159589    15.940852873   -13.809261422
 H      -10.914835582    14.691159511   -13.176495984
 H       -9.357571853    14.146513212   -14.957855458
 H      -12.388443268    15.232593899   -17.885711424
 H      -13.919219229    15.753336380   -16.069319060
 H      -14.102462563    13.796584171     1.454394041
 H      -12.649588421    14.295111579     2.341691278
 H      -11.745635344    15.379044265     0.186349097
 H      -13.225267432    14.920356818    -0.650915760
 H      -14.568973271    16.238940208     1.167926817
 H      -13.016312111    16.820453883     1.796291271
 H        2.262797336    -1.029027643     0.057086792
 H        2.260012337     0.557536279     0.868907301
 H        2.276078700     0.464985045    -0.913045894
 H       -7.138586639    13.823744295   -18.168168187
 H       -7.752907257    13.169556457   -16.629226539
 H       -7.480033139    14.924398313   -16.809447660
 H       -9.354556023    12.408706140   -19.577928860
 C      -10.185392719    11.436000116   -17.821376458
 C      -11.499596702    12.739625624   -19.503363130
 H      -10.724736917    15.689821472   -19.579960351
 C       -9.310156980    17.018483681   -18.610497263
 C       -8.758966818    15.412796625   -20.454765557
 H      -19.019877456    15.716527780    -6.514013462
 C      -19.356736596    15.297801849    -8.617756156
 C      -17.700566488    14.114026204    -7.163782076
 H      -18.709681801    18.227843736    -9.012582636
 C      -19.134524803    18.887387431    -6.987632516
 C      -17.202635345    19.659390738    -8.386135544
 H       -3.876217753    14.386044810     1.177719422
 C       -3.577924650    12.691575529     2.508359599
 C       -1.826041681    13.688385658     1.026594956
 H       -2.444193794    13.360422460    -1.925252932
 C       -4.016445791    12.532965632    -3.172380671
 C       -4.112324986    14.749237971    -2.004970874
 H       -0.142119456    -1.936728308    -1.513663938
 C       -2.149815771    -1.108674940    -1.570613438
 C       -0.192054840    -0.228816175    -2.855912446
 H       -1.774266921    -0.925227160     1.441438566
 C       -0.171508626    -2.373513307     1.633450542
 C       -0.298343502    -0.185314054     2.849146230
 H       -9.225265270    11.235381295   -17.328805418
 H      -10.450087389    10.516773589   -18.363345799
 H      -10.943748395    11.558159788   -17.034561576
 H      -11.528153463    13.520347994   -20.273882822
 H      -12.328978126    12.922493058   -18.805672349
 H      -11.734522807    11.795293613   -20.015885445
 H       -9.951353138    17.284110027   -17.757742395
 H       -9.448833986    17.812804486   -19.357726052
 H       -8.267154093    17.088958278   -18.274508230
 H       -8.991096353    14.482562860   -20.989169336
 H       -7.688780245    15.399389635   -20.209204222
 H       -8.896874483    16.226737182   -21.181387801
 H      -19.971638714    16.186470587    -8.808587992
 H      -20.060429179    14.474646713    -8.426190756
 H      -18.835628651    15.041581779    -9.551006145
 H      -17.022350790    14.129213598    -6.299792105
 H      -17.119845257    13.764118255    -8.029673187
 H      -18.446448615    13.333678612    -6.958066003
 H      -19.884663473    18.116628610    -6.768984242
 H      -19.693292573    19.776886029    -7.311877368
 H      -18.649562784    19.158117637    -6.038585868
 H      -16.480797884    19.450940607    -9.188444995
 H      -16.635555412    20.000773332    -7.509221900
 H      -17.795759856    20.521069079    -8.724007513
 H       -4.637760502    12.482021414     2.708013475
 H       -3.225938919    13.322627058     3.336381984
 H       -3.034757383    11.739198598     2.594726823
 H       -1.573030402    14.270544346     0.131476597
 H       -1.213304387    12.775939882     1.020257455
 H       -1.479436050    14.281728109     1.885329531
 H       -3.632917736    11.503278202    -3.203975391
 H       -3.638904361    13.028145123    -4.078305992
 H       -5.108661569    12.484284830    -3.280441109
 H       -3.763331073    15.393804612    -1.188030474
 H       -5.210870708    14.793004217    -2.017297095
 H       -3.775513816    15.224618962    -2.937285287
 H       -2.530015193    -1.680652127    -0.714788989
 H       -2.444053545    -1.670493969    -2.469077680
 H       -2.699385388    -0.157471947    -1.611508161
 H        0.895713522    -0.122720836    -2.955992650
 H       -0.637247605     0.768912698    -2.980030215
 H       -0.523161029    -0.822524028    -3.720036981
 H       -0.445428640    -2.978439270     0.759496380
 H       -0.633096432    -2.863929082     2.502884650
 H        0.914137332    -2.460295652     1.773452017
 H       -0.658474881     0.853089097     2.878581661
 H        0.780357364    -0.166470937     3.053813993
 H       -0.766081218    -0.696944022     3.702320184

