187   

Si        0.000000000     0.000000000     0.000000000
 C        1.865389998     0.000000000     0.000000000
 C       -0.678530223     1.711156286     0.000000000
 C        0.138592023     2.811998165    -0.275762566
 C       -0.386832825     4.104075497    -0.272886838
 C       -1.739402517     4.324911306    -0.000397787
 C       -2.557674195     3.220333388     0.272431956
 C       -2.035825971     1.929755150     0.272420080
 C       -2.332139283     5.658257605     0.013453825
 C       -1.659947261     6.796526394    -0.228504817
 C       -2.251343811     8.130430665    -0.214989517
 C       -3.604427810     8.352207847     0.057529953
 C       -4.127823142     9.644350941     0.059962914
 C       -3.303796355    10.744640782    -0.200483126
 C       -1.947739682    10.526588849    -0.473228005
 C       -1.430718599     9.233473579    -0.484260719
Si       -3.984963641    12.453626019    -0.199554909
 C       -2.632552999    13.656880119     0.047218434
 C       -2.399983247    14.742141666    -0.702434165
 C       -1.302244740    15.681330002    -0.468330016
 C       -1.158689143    16.784723082    -1.321995775
 C       -0.137210086    17.702558141    -1.143736373
 C        0.761543032    17.570585133    -0.061041471
 C        0.617690137    16.462447114     0.797215003
 C       -0.385713352    15.528839925     0.575868543
 N        1.788576649    18.506912454     0.104882582
 C        1.521424401    19.903799532    -0.270499639
 C        2.686442925    18.341682664     1.254470904
 C        0.255509354    20.527448415     0.346819187
 C        0.400108633    20.947345683     1.820173733
 N        1.342705597    22.049360802     2.101516046
 C        2.689550925    21.649238802     2.295810067
 C        2.958265042    20.804181801     3.391807170
 C        4.251736805    20.375596942     3.639632603
 C        5.319040599    20.797029239     2.831277615
 C        5.050995241    21.658612541     1.765114467
 C        3.756612400    22.095060795     1.502358214
 C        1.136642515    23.233041168     1.253460666
 C        6.667426185    20.313304783     3.137901907
 C        7.759329516    20.646851079     2.438455435
Si        9.462968587    20.074761967     2.774795960
 C       10.607928702    21.512425850     2.822138338
 C       10.115930426    22.801946995     3.057754087
 C       10.983639551    23.890920780     3.093557244
 C       12.360995113    23.717233079     2.905736851
 C       12.848889042    22.427217318     2.676967404
 C       11.983309071    21.335286047     2.636381411
 C       13.229392023    24.889095960     2.952117822
 C       14.562373620    24.860541950     2.784316741
 C       15.431251569    26.031969965     2.830581629
 C       14.946213228    27.322179729     3.059024977
 C       15.813458089    28.414205936     3.095106084
 C       17.186477534    28.239189369     2.896152902
 C       17.675321324    26.945908415     2.665917006
 C       16.808189092    25.857445294     2.636305036
Si       18.344699108    29.669546627     2.940565272
 C       17.430643480    31.294794710     2.889810065
 C       19.378814559    29.599945084     4.537160324
 C       19.520749091    29.528802662     1.450404957
 C        9.564550524    19.142318263     4.428647477
 C        9.978791178    18.893109419     1.375272879
 C       -4.890944894    12.760085466    -1.843346599
 C       -5.230658102    12.638618172     1.227332940
 C       -0.610567671    -0.923698279    -1.548336496
 C       -0.657674856    -0.902839786     1.541345223
 H        1.203983100     2.702275132    -0.496317039
 H        0.271359274     4.944079032    -0.487535070
 H       -3.614008038     3.370247934     0.487321826
 H       -2.722243738     1.107695982     0.493972321
 H       -3.401660511     5.681078227     0.241675588
 H       -0.590304790     6.773057715    -0.457153300
 H       -4.263344146     7.512367270     0.269155441
 H       -5.193869123     9.755801082     0.275766257
 H       -1.259080836    11.351022145    -0.686463144
 H       -0.375217462     9.081870463    -0.702414701
 H       -1.991947527    13.417272091     0.912398462
 H       -3.022544915    15.012415738    -1.565419562
 H       -1.854500921    16.918518142    -2.150879694
 H       -0.027690890    18.523766963    -1.845327610
 H        1.287846949    16.322282865     1.638942093
 H       -0.465054549    14.670710226     1.245659956
 H        3.490564191    19.100651922     1.220062366
 H        3.179993270    17.354276398     1.193641951
 H        2.178520519    18.430771973     2.228561278
 H        0.074348910    23.529421461     1.307003299
 H        1.406158000    23.090918709     0.195407599
 H        1.728991669    24.073238752     1.658919599
 H        2.143636172    20.501552425     4.047094991
 H        4.443323530    19.715172281     4.485938004
 H        5.864815501    22.004025269     1.125409383
 H        3.583215169    22.769689670     0.669226421
 H        6.699656921    19.646707650     4.009452017
 H        7.691386626    21.314573533     1.562733371
 H        9.050288904    22.996382466     3.216757160
 H       10.583666481    24.887186837     3.273088216
 H       13.914783906    22.265041458     2.528181409
 H       12.422402118    20.350826670     2.452551738
 H       12.712031744    25.834621350     3.139602305
 H       15.079622598    23.914942404     2.597139332
 H       13.881171933    27.486103175     3.212746474
 H       15.375119231    29.398986166     3.279163642
 H       18.738714723    26.748736723     2.502925272
 H       17.206817073    24.860570530     2.457875570
 H        2.414558624    20.519591887    -0.016653457
 H        1.443034489    19.938022388    -1.384275327
 H       -0.051955051    21.395904614    -0.265234118
 H       -0.587468798    19.807994457     0.271167910
 H       -0.594886904    21.281476881     2.202100813
 H        0.681671073    20.061396081     2.432280694
 H        2.263417733    -1.029399918     0.047151296
 H        2.261762021     0.548985584     0.873498103
 H        2.274595999     0.473104843    -0.909829324
 H       18.133763432    32.146772682     2.876913756
 H       16.771446146    31.421235723     3.766458176
 H       16.803867307    31.368681675     1.982579914
 H       20.017229062    30.530356765     4.526846017
 C       18.507024364    29.633241773     5.805889892
 C       20.315075892    28.380791721     4.614768856
 H       20.068053642    28.549983844     1.580157462
 C       18.767649843    29.472345278     0.108974932
 C       20.571566082    30.651599567     1.389009594
 H        8.775885833    18.336647325     4.379305870
 C       10.924760944    18.461408826     4.663195643
 C        9.251991211    20.048809070     5.633276712
 H       11.014859235    18.532055678     1.639016639
 C        9.060787412    17.663738684     1.258814776
 C       10.054056616    19.595436098     0.007990013
 H       -5.196760645    13.846226566    -1.830669422
 C       -3.982981608    12.530274738    -3.065437441
 C       -6.163493097    11.909889300    -2.007413111
 H       -6.057292973    11.900238247     1.016406194
 C       -4.617669861    12.287266036     2.594695468
 C       -5.854858895    14.043161759     1.302584919
 H       -0.110505018    -1.934723695    -1.516371524
 C       -2.133315064    -1.146425370    -1.574332625
 C       -0.192406146    -0.225232210    -2.855276675
 H       -1.782310107    -0.903203147     1.442845529
 C       -0.193360344    -2.366813026     1.640701909
 C       -0.300359219    -0.173254826     2.849043818
 H       17.862009333    30.518990689     5.869760454
 H       19.145238750    29.653150171     6.701006612
 H       17.864811370    28.746352819     5.905949837
 H       21.027978585    28.324511113     3.782494844
 H       19.770532273    27.427095739     4.658792804
 H       20.919333708    28.429872757     5.532505819
 H       18.034770183    28.654423700     0.057100924
 H       19.475942470    29.302124196    -0.714384190
 H       18.238785659    30.405392596    -0.126376836
 H       21.200098694    30.708570455     2.287133780
 H       20.129435327    31.643482446     1.226487288
 H       21.255992505    30.478974828     0.545622866
 H       11.179152536    17.719327070     3.895838860
 H       10.913048541    17.919440612     5.620217280
 H       11.756415324    19.177235436     4.729200614
 H        8.275404909    20.547423016     5.568351425
 H       10.009791736    20.831536552     5.784357087
 H        9.234998793    19.455079586     6.558082023
 H        9.024403219    17.058879641     2.173946345
 H        9.425035884    16.996365398     0.464456925
 H        8.026888930    17.924542666     0.990325539
 H       10.725307040    20.465939891     0.001424494
 H        9.073152580    19.929260516    -0.356915461
 H       10.444751229    18.901926746    -0.750441474
 H       -3.062852336    13.130462379    -3.049273476
 H       -4.514373622    12.803598329    -3.987673639
 H       -3.685308931    11.478032625    -3.181869601
 H       -6.913767803    12.093558155    -1.228015898
 H       -5.957394229    10.830429093    -2.029454860
 H       -6.651975855    12.146106370    -2.963966583
 H       -4.186513379    11.276828185     2.631832708
 H       -5.392182275    12.318945531     3.374045740
 H       -3.836392017    12.993497714     2.907565145
 H       -6.387273130    14.332390613     0.387437837
 H       -5.116120582    14.828040712     1.519737048
 H       -6.594588379    14.083651133     2.114690493
 H       -2.505757150    -1.714944562    -0.712882915
 H       -2.412334538    -1.725422328    -2.466811130
 H       -2.700992394    -0.206922557    -1.630523625
 H        0.893254763    -0.098401606    -2.954780563
 H       -0.655538125     0.764603286    -2.977142229
 H       -0.512186806    -0.822887041    -3.720879422
 H       -0.474535158    -2.972391018     0.769493091
 H       -0.658177564    -2.849337341     2.512825633
 H        0.891636018    -2.463441923     1.779185404
 H       -0.651751479     0.868261817     2.874473761
 H        0.778263484    -0.163351504     3.054352700
 H       -0.773451632    -0.677657735     3.703566956

