187   

Si        0.000000000     0.000000000     0.000000000
 C        1.865200924     0.000000000     0.000000000
 C       -0.674981442     1.712670026     0.000000000
 C        0.118693646     2.799099020    -0.381802116
 C       -0.401559728     4.093287115    -0.378614796
 C       -1.726035078     4.329167176    -0.002147963
 C       -2.521702298     3.239060735     0.375588666
 C       -2.004546046     1.946834988     0.376271371
 C       -2.314751748     5.663298714     0.017157535
 C       -1.670348625     6.794635628    -0.316061976
 C       -2.277325063     8.120971386    -0.290235985
 C       -1.507968367     9.231424107    -0.659136984
 C       -2.055926306    10.513368876    -0.646006470
 C       -3.386882971    10.710688261    -0.265149332
 C       -4.160951785     9.600501411     0.096630249
 C       -3.611960703     8.320886737     0.076752375
Si       -4.183055366    12.368817115    -0.221600268
 C       -5.821503231    12.211332309    -1.013328785
 C       -6.992630930    12.633096069    -0.519614589
 C       -8.272286305    12.472024946    -1.213469710
 C       -9.443276405    12.949889065    -0.608463260
 C      -10.675575950    12.818993451    -1.228620998
 C      -10.785961427    12.155006736    -2.468788096
 C       -9.611871865    11.673679630    -3.075940367
 C       -8.378742634    11.852670523    -2.461584852
 N      -12.047169981    12.030338488    -3.086607468
 C      -13.206724869    11.828053065    -2.201017380
 C      -12.113982785    11.202862630    -4.302593292
 C      -13.181047482    10.481601065    -1.457951384
 C      -14.249540208    10.470562863    -0.351901902
 N      -14.376664015     9.183062321     0.344383129
 C      -13.329829804     8.764307284     1.183998155
 C      -12.301358585     9.641582649     1.584008059
 C      -11.283019525     9.195791738     2.413440294
 C      -11.277784907     7.889203542     2.920101406
 C      -12.315769277     7.029864330     2.547700116
 C      -13.328950461     7.451694294     1.698778009
 C      -15.017101521     8.138585072    -0.474014394
 C      -10.179481620     7.469242960     3.791231027
 C      -10.069945158     6.247918868     4.332415488
Si       -8.685019136     5.751255687     5.418212331
 C       -7.163164503     6.677238237     4.964430408
 C       -6.746788308     6.663240641     3.625503840
 C       -5.601278644     7.350087436     3.237836670
 C       -4.837688462     8.057705607     4.176371075
 C       -5.253457610     8.068525809     5.509472178
 C       -6.407051836     7.387966014     5.900146342
 C       -3.647137376     8.759274075     3.714587878
 C       -2.823918449     9.483606447     4.491083486
 C       -1.638985186    10.173484211     3.993092673
 C       -1.270104481    10.128085461     2.646351752
 C       -0.134599260    10.794444215     2.193220719
 C        0.649478560    11.543082686     3.078645599
 C        0.276414476    11.601065630     4.426201481
 C       -0.855807066    10.925006222     4.877193016
Si        2.139178923    12.403287268     2.425982008
 C        3.090487323    11.279823581     1.280408463
 C        1.544409289    13.936160167     1.461105918
 C        3.250506420    12.987509300     3.854052204
 C       -9.173959350     6.092989570     7.226325790
 C       -8.375948137     3.883688400     5.226771041
 C       -4.318286880    12.957811907     1.582032733
 C       -3.141133527    13.637099375    -1.183035272
 C       -0.623571033    -0.918224120    -1.545877885
 C       -0.653285583    -0.906774470     1.541481416
 H        1.161836742     2.676469329    -0.685768739
 H        0.238305695     4.922918439    -0.673534771
 H       -3.555654097     3.402119477     0.675834512
 H       -2.671658479     1.136143069     0.682318815
 H       -3.361485393     5.692313749     0.337500426
 H       -0.624063785     6.771411278    -0.630618086
 H       -0.471410277     9.094853003    -0.959955157
 H       -1.408987459    11.344128899    -0.940784391
 H       -5.211800999     9.696291204     0.395047698
 H       -4.237087368     7.469492546     0.341168013
 H       -5.770473455    11.716312130    -1.998426061
 H       -7.083959160    13.131330614     0.453855315
 H       -9.386275903    13.441526999     0.363308609
 H      -11.558624634    13.229662005    -0.747396736
 H       -9.648516504    11.159149623    -4.030584874
 H       -7.482973096    11.480634492    -2.962272076
 H      -13.140755247    11.212240994    -4.704826735
 H      -11.813557599    10.154901165    -4.140176112
 H      -11.464749924    11.646340659    -5.079586005
 H      -15.682893532     8.586292651    -1.228853874
 H      -15.649216426     7.509083630     0.179248954
 H      -14.291556210     7.491661430    -0.994359507
 H      -12.278768897    10.668907783     1.232676440
 H      -10.477698292     9.882475899     2.681218582
 H      -12.337343813     6.007962250     2.928754865
 H      -14.122183465     6.758150079     1.440060792
 H       -9.429952341     8.258396994     3.950524900
 H      -10.832261188     5.473938174     4.165124681
 H       -7.308268271     6.133527466     2.848604234
 H       -5.296114739     7.336683449     2.192868985
 H       -4.678231843     8.610957046     6.256827379
 H       -6.682655458     7.431785337     6.956937745
 H       -3.445581073     8.654504009     2.640501002
 H       -3.009157748     9.592492056     5.561989013
 H       -1.867912058     9.556481652     1.932877333
 H        0.106448213    10.704171602     1.129090149
 H        0.848897648    12.171694243     5.161497265
 H       -1.128958289    10.980614544     5.928671642
 H      -13.249699736    12.674494069    -1.477453098
 H      -14.131379314    11.914899124    -2.815019888
 H      -13.342234289     9.647278346    -2.162478954
 H      -12.176541570    10.303550458    -1.021729618
 H      -14.036057775    11.260089587     0.406466395
 H      -15.247389056    10.728194206    -0.776462348
 H        2.263254620    -1.028034967     0.070060064
 H        2.260064803     0.568453132     0.861923070
 H        2.275727322     0.453560203    -0.918948787
 H        3.999353287    11.776369919     0.898201860
 H        2.485389528    10.970338234     0.410556767
 H        3.408840099    10.361403721     1.807287113
 H        2.477333253    14.435439635     1.072309582
 C        0.654696900    13.580213593     0.255659663
 C        0.789612619    14.945574553     2.345114719
 H        2.589859077    13.605946094     4.529069239
 C        3.816302522    11.819440920     4.682608962
 C        4.417909607    13.881248553     3.396394429
 H       -8.252103850     5.882840557     7.841950987
 C       -9.585174086     7.558712283     7.457128860
 C      -10.302890018     5.179422936     7.737042951
 H       -9.334840145     3.380984031     5.545135424
 C       -8.082048900     3.464553887     3.775086593
 C       -7.241537226     3.369965264     6.131000798
 H       -4.944390829    13.896507366     1.547437107
 C       -5.029352178    11.940793790     2.491925636
 C       -2.960887959    13.315751993     2.211240408
 H       -2.117056831    13.620669037    -0.706857302
 C       -2.982321114    13.276569233    -2.670991963
 C       -3.687377194    15.071946215    -1.075818400
 H       -0.144684260    -1.939163116    -1.509934200
 C       -2.150922184    -1.108446746    -1.570001216
 C       -0.190927972    -0.233867552    -2.855504611
 H       -1.777713287    -0.916579638     1.441737593
 C       -0.178163576    -2.367271408     1.642029517
 C       -0.303006037    -0.173954931     2.849098074
 H        1.143716469    12.914005378    -0.465958286
 H        0.390610027    14.492316277    -0.298462537
 H       -0.296206624    13.114728249     0.556805974
 H        1.385748959    15.319644844     3.186932344
 H       -0.145888298    14.536750114     2.754866395
 H        0.507752597    15.828156195     1.753374408
 H        3.043846943    11.138373720     5.066435101
 H        4.351305914    12.205110429     5.562102555
 H        4.540208660    11.211927740     4.122777874
 H        4.089513744    14.794353671     2.883269678
 H        5.123803543    13.361385572     2.735437552
 H        5.001064764    14.212535844     4.268032453
 H       -8.821647899     8.285723789     7.149339348
 H       -9.767177282     7.736294542     8.526135458
 H      -10.517080910     7.824181124     6.936118958
 H      -10.047230330     4.112674441     7.705858399
 H      -11.245268901     5.315864563     7.188903836
 H      -10.524754494     5.409648502     8.789211508
 H       -8.849915076     3.791225605     3.061007012
 H       -8.040000448     2.368516728     3.702252885
 H       -7.110577674     3.832612444     3.415277091
 H       -7.420564361     3.547922287     7.199230754
 H       -6.263775819     3.806578462     5.880686353
 H       -7.129831643     2.282428941     6.014904711
 H       -6.016710427    11.629942576     2.126894425
 H       -5.190775455    12.375090451     3.488669824
 H       -4.433756630    11.028984890     2.656648093
 H       -2.418590910    14.103450249     1.674572324
 H       -2.286532437    12.448725199     2.301751588
 H       -3.106559194    13.685086930     3.236470134
 H       -2.578634253    12.269288419    -2.840164770
 H       -2.284206841    13.973619618    -3.155571259
 H       -3.926270201    13.351160759    -3.228778938
 H       -3.735356734    15.442922119    -0.043547029
 H       -4.688174275    15.183789400    -1.516225690
 H       -3.033214727    15.766407370    -1.621705184
 H       -2.531650294    -1.681954796    -0.715416088
 H       -2.445622945    -1.667885229    -2.469745242
 H       -2.699493996    -0.156645332    -1.609005906
 H        0.897257476    -0.132109889    -2.955964508
 H       -0.632108284     0.765494989    -2.980606107
 H       -0.524550413    -0.827185003    -3.718842898
 H       -0.453368932    -2.975245922     0.770671985
 H       -0.640735534    -2.852947007     2.513579008
 H        0.907286863    -2.455741353     1.782464272
 H       -0.663236335     0.864785669     2.874496482
 H        0.775457390    -0.154227557     3.054865522
 H       -0.771707516    -0.682141991     3.703777012

