187   

Si        0.000000000     0.000000000     0.000000000
 C        1.865375845     0.000000000     0.000000000
 C       -0.680946234     1.710518972     0.000000000
 C        0.150405987     2.822408490    -0.166706144
 C       -0.380865772     4.112075360    -0.164368578
 C       -1.753506643     4.318740897    -0.005580882
 C       -2.585777295     3.203507246     0.159281971
 C       -2.057698490     1.915703562     0.164996288
 C       -2.353130554     5.648679983     0.003198436
 C       -1.668038421     6.796034425    -0.137168682
 C       -2.267326593     8.125661760    -0.128415437
 C       -1.433282040     9.239654414    -0.285478992
 C       -1.958942442    10.529335673    -0.283832544
 C       -3.331762161    10.735687642    -0.107140016
 C       -4.168574575     9.623743949     0.045463452
 C       -3.641991559     8.333224090     0.021631175
Si       -4.062647932    12.421879604    -0.099016767
 C       -5.275445145    12.616173148     1.255552097
 C       -5.201234045    11.959389511     2.420572638
 C       -6.167773407    12.108425117     3.511333338
 C       -5.974939899    11.360351826     4.683742309
 C       -6.858758695    11.463381250     5.745493701
 C       -7.950849629    12.342937255     5.661104883
 C       -8.152580670    13.091855000     4.497498660
 C       -7.269789143    12.961597199     3.428884030
 N       -8.813070802    12.384300899     6.806702810
 C       -8.265430237    13.271203906     7.858832216
 C      -10.226626570    12.660936110     6.496010464
 C       -8.345428132    14.777063663     7.535842953
 C       -7.288551903    15.591920387     8.306685685
 N       -6.091243198    15.959639676     7.522169571
 C       -5.263631508    14.870255799     7.142703027
 C       -4.742425999    14.054502976     8.166475738
 C       -3.929027490    12.977747654     7.852726906
 C       -3.579681072    12.699209073     6.523030396
 C       -4.071087148    13.532855104     5.515710792
 C       -4.888897968    14.616877358     5.815054105
 C       -6.388815315    16.938890354     6.462701811
 C       -2.717092577    11.548501905     6.247713373
 C       -2.316287517    11.182671759     5.022732095
Si       -1.238905395     9.745948380     4.675466688
 C       -0.072505751     9.370177314     6.045531926
 C        0.341546163    10.376278742     6.925151607
 C        1.226273838    10.090261177     7.964020032
 C        1.727611835     8.797589540     8.139180582
 C        1.320470942     7.793459029     7.250894871
 C        0.434715402     8.075430251     6.214283180
 C        2.655051394     8.451871664     9.211416960
 C        3.122384478     9.317193187    10.127252077
 C        4.049764883     8.971807223    11.199532006
 C        4.549189439     7.679050847    11.377163618
 C        5.434460673     7.392730400    12.416427419
 C        5.834739067     8.394383155    13.306277771
 C        5.334274499     9.691779298    13.130909587
 C        4.455240031     9.975560281    12.089586405
Si        7.002155916     8.034060531    14.683171110
 C        7.242353344     6.198980646    14.916779977
 C        8.692041680     8.826343739    14.308586263
 C        6.304489567     8.815215469    16.272659792
 C       -2.369939625     8.234671295     4.410436683
 C       -0.288845470    10.074267195     3.065055256
 C       -2.704632274    13.731176043     0.166161092
 C       -4.921756237    12.746611034    -1.760965309
 C       -0.597795039    -0.930902973    -1.549119976
 C       -0.663976666    -0.894284871     1.543251558
 H        1.231439112     2.723323729    -0.298637004
 H        0.288692194     4.960929055    -0.291465532
 H       -3.657877210     3.342555264     0.286171503
 H       -2.754976693     1.084467831     0.303878073
 H       -3.439026964     5.660209850     0.135609758
 H       -0.582255078     6.783711841    -0.269441208
 H       -0.361042682     9.099535653    -0.410328110
 H       -1.259003901    11.358434388    -0.419930230
 H       -5.249749147     9.726119973     0.188383983
 H       -4.313771624     7.483739266     0.129910114
 H       -6.077919369    13.341204524     1.055239580
 H       -4.406792264    11.230585699     2.642205800
 H       -5.114763645    10.690992630     4.769285008
 H       -6.714169533    10.874396871     6.650534183
 H       -8.996387120    13.769856848     4.417917678
 H       -7.444009845    13.544355172     2.524950351
 H      -10.824261845    12.470895151     7.404567256
 H      -10.569446725    11.952082500     5.721955073
 H      -10.436126856    13.683231427     6.150003566
 H       -6.894236102    17.810546890     6.912847853
 H       -7.022393009    16.551585149     5.649220592
 H       -5.439840064    17.303515090     6.030087105
 H       -4.978361514    14.275327741     9.204257045
 H       -3.547910997    12.345480392     8.655222135
 H       -3.815792333    13.340067529     4.470994815
 H       -5.261292756    15.233764299     5.003011123
 H       -2.424330854    11.003081295     7.155763847
 H       -2.631871519    11.742807649     4.127439087
 H       -0.009087679    11.409702530     6.831188899
 H        1.527640595    10.889183681     8.639083930
 H        1.700579749     6.780564345     7.368849801
 H        0.155494488     7.251712996     5.550781264
 H        2.962899906     7.402354932     9.229065631
 H        2.814566332    10.366957035    10.109187309
 H        4.250315424     6.880550613    10.700631120
 H        5.791547594     6.362937493    12.503793418
 H        5.610864060    10.514645318    13.796125927
 H        4.078309388    10.989479818    11.968900188
 H       -8.812754112    13.047466956     8.800063460
 H       -7.203156454    12.973343464     8.029543896
 H       -8.212086533    14.928405775     6.446396439
 H       -9.355549425    15.157558386     7.766501430
 H       -7.739864620    16.539400570     8.680616058
 H       -6.955426758    15.041627834     9.214699956
 H        2.263158325    -1.030312702     0.028127481
 H        2.263409093     0.532408346     0.882834690
 H        2.273433021     0.489226573    -0.901944815
 H        7.916082920     5.990699705    15.767070252
 H        7.682139139     5.726971483    14.020831375
 H        6.280272618     5.696779081    15.125259183
 H        9.370310603     8.509469241    15.153007415
 C        9.302658666     8.317025327    12.990002741
 C        8.660687130    10.364734296    14.275023107
 H        6.228495104     9.922380400    16.065073853
 C        4.892870952     8.302419704    16.610482868
 C        7.213901811     8.626753689    17.499897807
 H       -1.697733430     7.409345769     4.036273356
 C       -3.035331293     7.760608530     5.714973215
 C       -3.462983173     8.470756150     3.357491826
 H       -1.073871754    10.268287491     2.273726562
 C        0.615079033    11.315929600     3.159666744
 C        0.553964605     8.872083257     2.604544420
 H       -1.954136046    13.575487848    -0.660974547
 C       -3.229749507    15.174434831     0.063327139
 C       -1.981985818    13.564061607     1.514993188
 H       -5.329668971    13.796983680    -1.701098783
 C       -3.958970345    12.676197710    -2.959064176
 C       -6.102909208    11.792208016    -2.011959731
 H       -0.073913248    -1.930224876    -1.521187837
 C       -2.114378233    -1.190686565    -1.576004420
 C       -0.197034415    -0.218727516    -2.854239301
 H       -1.788656404    -0.882164844     1.445995538
 C       -0.214217474    -2.362506817     1.643923707
 C       -0.297880981    -0.166254745     2.849437258
 H        9.441599157     7.228558036    12.965028988
 H       10.299027359     8.757252706    12.841102474
 H        8.708377717     8.596503932    12.108042285
 H        8.315696100    10.814383762    15.214638304
 H        8.037005288    10.761036692    13.461330159
 H        9.673444270    10.757045713    14.101639980
 H        4.169574354     8.455368745    15.796641189
 H        4.493609750     8.842182046    17.480982029
 H        4.874513043     7.236341406    16.872764625
 H        8.222995295     9.035593829    17.360256679
 H        7.317474387     7.575238727    17.798717612
 H        6.787246026     9.151622486    18.367073114
 H       -2.315637734     7.491791825     6.499852340
 H       -3.633334510     6.858287052     5.524839358
 H       -3.724246365     8.504753765     6.139628870
 H       -3.074478630     8.846548189     2.399720538
 H       -4.242826488     9.165916447     3.697613694
 H       -3.973314574     7.525053062     3.126187638
 H        0.076053989    12.229243830     3.447251998
 H        1.078156289    11.521997660     2.184644925
 H        1.443936900    11.185768480     3.869992436
 H       -0.052069698     7.985807651     2.370309514
 H        1.318192794     8.574228894     3.335626882
 H        1.096387722     9.123844200     1.682162001
 H       -3.686602988    15.405360013    -0.907029190
 H       -2.399500708    15.885347365     0.184616123
 H       -3.960724223    15.421083466     0.846291182
 H       -1.536409102    12.568451589     1.655120896
 H       -2.638560795    13.757422892     2.376253283
 H       -1.154893961    14.283789268     1.591886669
 H       -3.130504749    13.393419977    -2.896372287
 H       -4.497193344    12.910298674    -3.889147248
 H       -3.524620592    11.676225244    -3.101418274
 H       -6.864254149    11.821176434    -1.220626081
 H       -5.788077601    10.745957475    -2.134703824
 H       -6.617470068    12.067058934    -2.943931409
 H       -2.476006198    -1.757001352    -0.708502008
 H       -2.376454071    -1.787810941    -2.461747520
 H       -2.704279934    -0.266259787    -1.646868066
 H        0.885694154    -0.069830447    -2.956112766
 H       -0.679559477     0.762338297    -2.971057008
 H       -0.507121399    -0.818929180    -3.721680668
 H       -0.502695485    -2.966555106     0.774004109
 H       -0.682408817    -2.839326760     2.517437574
 H        0.870016410    -2.469862465     1.780790126
 H       -0.641007147     0.877900961     2.874944103
 H        0.781064818    -0.165134007     3.053068023
 H       -0.773697035    -0.665955387     3.705379271

