187   

Si        0.000000000     0.000000000     0.000000000
 C        1.864896239     0.000000000     0.000000000
 C       -0.646754056     1.722603674     0.000000000
 C        0.144176745     2.772745975    -0.476218013
 C       -0.340992490     4.079066398    -0.478343809
 C       -1.621806339     4.368798938    -0.001253287
 C       -2.414626310     3.315405270     0.471945064
 C       -1.936558649     2.007224744     0.467031745
 C       -2.160218019     5.725116060     0.010653688
 C       -1.486715576     6.801556468    -0.427989804
 C       -1.992671603     8.168274745    -0.430883518
 C       -3.264193810     8.511618599     0.034232494
 C       -3.698886173     9.838188675     0.008465408
 C       -2.880054947    10.842302463    -0.514511827
 C       -1.605593790    10.498428681    -0.988383930
 C       -1.165900395     9.180184825    -0.937891775
Si       -3.397409703    12.607021599    -0.575506133
 C       -2.657741210    13.422800579    -2.036393261
 C       -2.375467408    12.776759205    -3.175836799
 C       -1.784202525    13.409350095    -4.355480108
 C       -1.537053515    12.623716699    -5.486854207
 C       -0.977245002    13.174204171    -6.633187979
 C       -0.680580413    14.545238720    -6.682370257
 C       -0.927987905    15.339195016    -5.546297383
 C       -1.457185981    14.769225731    -4.398344187
 N       -0.108309927    15.175899108    -7.819089873
 C       -0.881162615    16.320385590    -8.346433513
 C        0.362141154    14.274418794    -8.884941319
 C       -2.293884290    15.970768042    -8.853940621
 C       -3.361806030    16.230400320    -7.773546032
 N       -4.676808861    15.592296318    -7.976443974
 C       -4.744160642    14.245988634    -7.462912904
 C       -5.664720564    14.040275372    -6.425959734
 C       -5.802191966    12.777523671    -5.866064564
 C       -4.997701326    11.711245690    -6.293296810
 C       -4.081825292    11.928624514    -7.326694412
 C       -3.967125404    13.180068939    -7.923987903
 C       -5.172093158    15.670143174    -9.363949390
 C       -5.181508385    10.396259633    -5.670500079
 C       -4.472206666     9.308581832    -5.997458538
Si       -4.657497706     7.647338863    -5.256536988
 C       -3.016511929     7.000690863    -4.740724436
 C       -1.998424162     7.886517628    -4.365640362
 C       -0.753185142     7.400947684    -3.974003759
 C       -0.508158545     6.023150748    -3.917225640
 C       -1.532817873     5.142776991    -4.276304767
 C       -2.775470456     5.624663117    -4.683398431
 C        0.809473002     5.553067534    -3.502129512
 C        1.156943439     4.257005762    -3.426793838
 C        2.464949340     3.761089522    -3.015582284
 C        3.514278899     4.606965843    -2.649479449
 C        4.748228273     4.083177933    -2.263178936
 C        4.961676722     2.701456265    -2.247405812
 C        3.912761042     1.851007383    -2.622763262
 C        2.682122283     2.376383934    -3.003773415
Si        6.582082824     1.990682254    -1.741028176
 C        7.860013644     3.320511899    -1.463318662
 C        6.371015793     1.015546789    -0.118838825
 C        7.148160551     0.797506979    -3.110775071
 C       -5.793642298     7.669049544    -3.736591361
 C       -5.420069078     6.503033745    -6.571724277
 C       -5.288521077    12.778901843    -0.681377544
 C       -2.783658857    13.477626703     0.998694991
 C       -0.637069624    -0.899663734    -1.551674398
 C       -0.654759893    -0.914491370     1.534612008
 H        1.160085727     2.615836556    -0.855786197
 H        0.295870123     4.876663189    -0.861797746
 H       -3.416064966     3.517773619     0.845283190
 H       -2.601392198     1.226059823     0.843525823
 H       -3.173056499     5.819415246     0.408543585
 H       -0.475500939     6.691124174    -0.836105888
 H       -3.923946677     7.743724668     0.433264651
 H       -4.696657116    10.049781950     0.399999433
 H       -0.918957026    11.244249185    -1.404230835
 H       -0.170645629     8.931953418    -1.301896009
 H       -2.469739189    14.499816627    -1.922899319
 H       -2.572657157    11.702883902    -3.317136759
 H       -1.790979636    11.561631677    -5.475209396
 H       -0.799836568    12.535312367    -7.492517456
 H       -0.675117343    16.396495353    -5.560703739
 H       -1.629227568    15.397820225    -3.524005892
 H        0.940066236    14.861382348    -9.619576865
 H       -0.440528752    13.743226277    -9.419499673
 H        1.054998000    13.530631969    -8.452155411
 H       -5.169204831    16.723785061    -9.687305539
 H       -6.219328251    15.318910375    -9.380341123
 H       -4.599592972    15.074075265   -10.089572212
 H       -6.265750389    14.878394507    -6.074399998
 H       -6.531836549    12.621973452    -5.072324677
 H       -3.453509686    11.112358389    -7.682346366
 H       -3.262725689    13.327151674    -8.737592559
 H       -5.958338123    10.390117594    -4.894996159
 H       -3.698806072     9.348864231    -6.783408276
 H       -2.142710024     8.972136744    -4.371400584
 H        0.032583214     8.103210532    -3.702230564
 H       -1.371524706     4.066947427    -4.231275248
 H       -3.537728587     4.887829087    -4.950353916
 H        1.524156181     6.341482600    -3.252998528
 H        0.432723262     3.474315453    -3.677260278
 H        3.375290252     5.686258808    -2.658109904
 H        5.530505997     4.793176787    -1.981640376
 H        4.026165701     0.763075428    -2.637463856
 H        1.878819984     1.702173180    -3.299457798
 H       -0.932482633    17.097380204    -7.550867144
 H       -0.284874724    16.775567462    -9.169365172
 H       -2.525548418    16.563763191    -9.756658621
 H       -2.326703293    14.914260956    -9.177031481
 H       -2.982056785    15.913769528    -6.773295770
 H       -3.558616056    17.325481300    -7.700591797
 H        2.265645777    -1.028410731     0.010746368
 H        2.256983116     0.521803994     0.892882210
 H        2.273901446     0.515322975    -0.889110917
 H        8.837173563     2.882516075    -1.191644915
 H        7.565158328     4.005955744    -0.649287334
 H        8.010984929     3.924371947    -2.376338625
 H        7.419342001     0.786359954     0.230296603
 C        5.671867275     1.844264752     0.974718099
 C        5.622699939    -0.319719092    -0.276068443
 H        6.345498103     0.006714894    -3.181700550
 C        7.253721618     1.483693353    -4.484822194
 C        8.480171356     0.093139621    -2.798174135
 H       -6.754781348     8.162030823    -4.059124945
 C       -6.129146787     6.263097296    -3.207258896
 C       -5.179778339     8.489537293    -2.592510361
 H       -5.546441087     5.498421793    -6.073383881
 C       -6.805406434     6.974448273    -7.047571076
 C       -4.506149368     6.314350774    -7.795534740
 H       -5.706794473    12.219822196     0.204042029
 C       -5.764945253    14.240309911    -0.588844197
 C       -5.865620791    12.153668867    -1.963519051
 H       -3.103734126    14.555257718     0.906201725
 C       -3.403698726    12.902470720     2.284085546
 C       -1.249850514    13.445309017     1.124835900
 H       -0.234378282    -1.951068739    -1.486508929
 C       -2.173205573    -0.979184971    -1.612975843
 C       -0.122448515    -0.273722237    -2.861386981
 H       -1.779273182    -0.917828094     1.438455993
 C       -0.187378704    -2.378624234     1.622560299
 C       -0.295703818    -0.195069238     2.847555792
 H        6.191008306     2.782081725     1.211034598
 H        5.630747832     1.272205115     1.912649391
 H        4.631554191     2.096550433     0.720440143
 H        6.086952026    -0.998434165    -1.002142918
 H        4.569167624    -0.186636018    -0.561243371
 H        5.614912551    -0.858598327     0.682838442
 H        6.315967299     1.960035178    -4.804686814
 H        7.500223627     0.742339002    -5.258301030
 H        8.042876437     2.246137732    -4.525214398
 H        8.461484064    -0.477146931    -1.860363879
 H        9.330265114     0.786747453    -2.750374476
 H        8.718107999    -0.629315254    -3.592498309
 H       -6.658016720     5.636605656    -3.935714034
 H       -6.789858393     6.340643564    -2.331700720
 H       -5.240343718     5.709522484    -2.869378091
 H       -4.909421137     9.517327130    -2.876834515
 H       -4.268023971     8.024301623    -2.182210296
 H       -5.886132165     8.568524053    -1.755217269
 H       -7.543354614     7.042472113    -6.237799136
 H       -7.215506378     6.262307178    -7.777704693
 H       -6.775872004     7.949935799    -7.553638409
 H       -3.503262681     5.945407539    -7.538271906
 H       -4.381340506     7.234610787    -8.382173490
 H       -4.940196891     5.570469935    -8.478573475
 H       -5.463127297    14.740758039     0.339720714
 H       -6.863429550    14.279481766    -0.612344821
 H       -5.418438403    14.855994384    -1.431181402
 H       -5.655134362    11.078178382    -2.051105149
 H       -5.495944801    12.640005595    -2.879578666
 H       -6.959170017    12.256439370    -1.975985913
 H       -4.498262727    12.976925256     2.311092399
 H       -3.036616639    13.457067361     3.159887940
 H       -3.135270642    11.849958203     2.455079555
 H       -0.731866031    13.888904101     0.263586706
 H       -0.854481753    12.428458722     1.262429511
 H       -0.931514608    14.020049894     2.006036133
 H       -2.617249477    -1.502961720    -0.757071785
 H       -2.487209519    -1.536444962    -2.507003789
 H       -2.648809968     0.009799038    -1.684562433
 H        0.971852004    -0.296235517    -2.946927573
 H       -0.457429256     0.764734044    -2.997112483
 H       -0.508341027    -0.835494694    -3.723929145
 H       -0.477066519    -2.980401412     0.751775021
 H       -0.642999986    -2.865921565     2.496792115
 H        0.899100437    -2.474292531     1.749751298
 H       -0.644378722     0.847304677     2.880519431
 H        0.783412140    -0.188712136     3.051573801
 H       -0.768911708    -0.704218947     3.698860338

