187   

Si        0.000000000     0.000000000     0.000000000
 C        1.864885408     0.000000000     0.000000000
 C       -0.663376623     1.717663300     0.000000000
 C       -0.015333908     2.713834545     0.739846634
 C       -0.503306724     4.019699699     0.751569123
 C       -1.648158993     4.359810330     0.026010439
 C       -2.299587753     3.360687518    -0.708445014
 C       -1.817971177     2.054166064    -0.716949302
 C       -2.195827158     5.711284568     0.007607732
 C       -1.677442804     6.760264926     0.668751911
 C       -2.236700109     8.107225280     0.640804521
 C       -1.603035656     9.118499103     1.374051849
 C       -2.103561481    10.418814778     1.375253290
 C       -3.261714281    10.730959140     0.655907212
 C       -3.900779047     9.720272227    -0.072621821
 C       -3.391455365     8.423790898    -0.081220891
Si       -3.970361580    12.429009479     0.619329351
 C       -5.788599085    12.251644485     0.666558602
 C       -6.654116904    12.844775823    -0.165170773
 C       -8.106031851    12.675666529    -0.092814600
 C       -8.909947693    13.351043116    -1.022256181
 C      -10.289032891    13.225934983    -0.998308139
 C      -10.907646233    12.347240705    -0.084527233
 C      -10.102665653    11.659221807     0.839244870
 C       -8.725679807    11.846423646     0.845714349
 N      -12.316977580    12.246115957    -0.089395669
 C      -12.958842468    12.087302313    -1.409985748
 C      -12.911853532    11.369528192     0.934412435
 C      -12.661342885    10.750436439    -2.115020393
 C      -11.536694172    10.881612173    -3.162300246
 N      -10.809206150     9.626313591    -3.450362918
 C       -9.989094595     9.225176928    -2.343300800
 C       -8.734775604     9.848011139    -2.240407809
 C       -7.882247733     9.515726195    -1.198544988
 C       -8.252685967     8.556460932    -0.244108371
 C       -9.498006329     7.934904993    -0.363379945
 C      -10.360988729     8.255546050    -1.406536876
 C      -11.683718157     8.562430408    -3.975721428
 C       -7.318486226     8.237405324     0.840110674
 C       -7.578394794     7.338565852     1.797654322
Si       -6.479363009     6.877101447     3.182969824
 C       -7.437374076     6.959997710     4.751809669
 C       -8.561580639     7.791150382     4.840592186
 C       -9.293860946     7.861682653     6.022659705
 C       -8.915220452     7.115010555     7.146136881
 C       -7.788475436     6.292656206     7.056033949
 C       -7.055285165     6.216098148     5.872497582
 C       -9.714613219     7.222440653     8.362204145
 C       -9.463575271     6.559293697     9.503760844
 C      -10.262443858     6.666218841    10.720082408
 C      -11.389086809     7.487354926    10.812945603
 C      -12.124023833     7.559132163    11.996289439
 C      -11.751186779     6.803180955    13.112069346
 C      -10.622186266     5.977704787    13.021245527
 C       -9.887100838     5.913226842    11.840905972
Si      -12.710667365     6.886868520    14.680854119
 C      -14.368297345     7.704323378    14.428550417
 C      -12.944933068     5.114190208    15.334152869
 C      -11.725048984     7.881300218    15.970611015
 C       -5.853690752     5.103101706     2.909619654
 C       -4.995027616     8.055163158     3.289872309
 C       -3.393807707    13.466103750     2.102925001
 C       -3.400173151    13.287991993    -0.978637299
 C       -0.642161575    -0.939941827    -1.526088523
 C       -0.638901010    -0.892059972     1.555644629
 H        0.886550118     2.508268898     1.323464212
 H        0.019818248     4.776603122     1.333007041
 H       -3.194440131     3.603928988    -1.278957898
 H       -2.372324719     1.316471350    -1.303626957
 H       -3.090000985     5.831893729    -0.613667787
 H       -0.780631959     6.646105032     1.283276456
 H       -0.706267312     8.890714096     1.946454108
 H       -1.561882233    11.169229151     1.956474105
 H       -4.807974239     9.910805693    -0.657137231
 H       -3.906290539     7.654843764    -0.655970286
 H       -6.140448370    11.594125037     1.480228759
 H       -6.337424821    13.512304470    -0.977061339
 H       -8.447975504    14.003758421    -1.763185018
 H      -10.895009388    13.808059060    -1.687304989
 H      -10.538321652    10.964930209     1.551538346
 H       -8.124643808    11.307450550     1.581751046
 H      -14.011091453    11.452126570     0.892896289
 H      -12.601188950    11.720683390     1.935436656
 H      -12.638922255    10.306990269     0.829833178
 H      -12.098193211     8.900603028    -4.941221799
 H      -12.519065041     8.281362941    -3.318220235
 H      -11.076500770     7.662209288    -4.175326565
 H       -8.445470550    10.592310208    -2.980855033
 H       -6.917770369    10.020423245    -1.118258112
 H       -9.807389250     7.184651482     0.364888512
 H      -11.321675649     7.755608281    -1.482049671
 H       -6.382965489     8.811773048     0.795909276
 H       -8.528104445     6.776411022     1.803899965
 H       -8.899828743     8.401128013     3.995982526
 H      -10.167952243     8.507850790     6.072849066
 H       -7.473023682     5.702894906     7.914565450
 H       -6.183412212     5.556090419     5.861447954
 H      -10.567821681     7.903180372     8.290000723
 H       -8.610311581     5.878487366     9.575431006
 H      -11.703107999     8.082170222     9.957227912
 H      -12.994844523     8.220305934    12.008645770
 H      -10.283817114     5.363836205    13.860733506
 H       -9.012391867     5.267625981    11.790019149
 H      -14.057567077    12.198846725    -1.258775776
 H      -12.663184400    12.945744148    -2.053231903
 H      -12.379829563     9.986717258    -1.362957892
 H      -13.577991297    10.367260194    -2.596411320
 H      -11.946925785    11.258051537    -4.124426798
 H      -10.781096505    11.630332268    -2.825610882
 H        2.263119891    -1.029677393    -0.035549353
 H        2.277835687     0.486741377     0.900509015
 H        2.257707788     0.539964129    -0.881191577
 H      -14.955286654     7.711316572    15.364307881
 H      -14.962972372     7.166383700    13.668068283
 H      -14.262125945     8.751378859    14.094933577
 H      -11.905879595     4.709602507    15.510434477
 C      -13.708638476     5.047271949    16.668677480
 C      -13.639952525     4.196747363    14.311955320
 H      -12.388097427     7.941402381    16.881507865
 C      -10.403263469     7.211247829    16.386471615
 C      -11.424227627     9.317191580    15.503173002
 H       -5.181558396     4.874500553     3.787431325
 C       -6.990637598     4.065784844     2.898980325
 C       -5.023214070     4.952240079     1.625348114
 H       -4.571489944     8.125521375     2.242385622
 C       -5.414375943     9.468276170     3.732555983
 C       -3.871700358     7.555459937     4.214290670
 H       -2.270444789    13.533338892     2.016915438
 C       -3.957806392    14.898469498     2.079809494
 C       -3.728389832    12.823282317     3.460290923
 H       -3.942993537    14.276693702    -1.011109453
 C       -1.888273759    13.573989824    -1.002476179
 C       -3.772946367    12.494969747    -2.244852431
 H       -1.768670651    -0.895853279    -1.467227308
 C       -0.209904222    -0.285469352    -2.850914198
 C       -0.233045108    -2.423962389    -1.547941309
 H       -0.190549286    -1.926726442     1.523941874
 C       -0.182614024    -0.214276365     2.860522811
 C       -2.171447682    -1.034054737     1.582469263
 H      -13.232663871     5.624906263    17.471624935
 H      -13.753122182     4.007241238    17.023464536
 H      -14.749447263     5.386771754    16.584025275
 H      -13.119236420     4.151856807    13.344594304
 H      -14.680631351     4.485612086    14.113813052
 H      -13.672015042     3.165411695    14.691192469
 H      -10.536948950     6.207737942    16.809707376
 H       -9.908721813     7.808874407    17.166192134
 H       -9.684694250     7.135741396    15.558050940
 H      -12.325623011     9.896787138    15.266103381
 H      -10.765963747     9.350737237    14.622978591
 H      -10.903408261     9.870788791    16.297649564
 H       -7.605883773     4.082831921     3.808982541
 H       -6.572236350     3.051313392     2.830293395
 H       -7.665052183     4.179092272     2.039621946
 H       -4.144735784     5.613809135     1.602153953
 H       -5.605889696     5.134334132     0.712400384
 H       -4.630952461     3.927915659     1.544634822
 H       -6.169557101     9.924806264     3.078390322
 H       -4.541481625    10.137256083     3.712785439
 H       -5.801791419     9.498522518     4.760374999
 H       -3.454570723     6.587499437     3.906564335
 H       -4.182538589     7.472115018     5.263918404
 H       -3.031846953     8.265952198     4.195704803
 H       -3.684227749    15.461483515     1.178319209
 H       -3.562873904    15.472845032     2.930160104
 H       -5.053252659    14.928334028     2.171951101
 H       -3.287558043    11.825007270     3.589284050
 H       -4.809826975    12.739882286     3.639732020
 H       -3.329753395    13.440617670     4.278307560
 H       -1.553881765    14.224893638    -0.184478404
 H       -1.617781346    14.091547394    -1.934474394
 H       -1.278383632    12.659930670    -0.973870911
 H       -4.847365439    12.281861544    -2.330696172
 H       -3.238045982    11.536943487    -2.318965977
 H       -3.499355831    13.067746621    -3.142028880
 H       -0.493991452     0.773286798    -2.929699139
 H       -0.689449807    -0.796388242    -3.698008756
 H        0.872671855    -0.349109680    -3.025269428
 H       -0.585093520    -2.984561100    -0.672284925
 H        0.852632571    -2.569240478    -1.624041487
 H       -0.671019720    -2.920659564    -2.426027826
 H        0.908294563    -0.143608958     2.956984555
 H       -0.529957210    -0.795336091     3.727051918
 H       -0.596837373     0.796780929     2.983520160
 H       -2.572125191    -1.594384716     0.728121212
 H       -2.689998735    -0.065340953     1.620831531
 H       -2.482491259    -1.584314239     2.482342220

