187   

Si        0.000000000     0.000000000     0.000000000
 C        1.865151863     0.000000000     0.000000000
 C       -0.676073201     1.712419306     0.000000000
 C        0.124073647     2.802462447     0.356893767
 C       -0.396840168     4.096239888     0.353957736
 C       -1.728344106     4.329741748     0.000348913
 C       -2.530088496     3.235980049    -0.352633681
 C       -2.012820373     1.943497639    -0.351626772
 C       -2.315814272     5.665294101    -0.016872683
 C       -1.658315578     6.794287066     0.297858410
 C       -2.244767222     8.130283792     0.280977458
 C       -3.576299844     8.364620480    -0.072545540
 C       -4.095846715     9.658859757    -0.075039550
 C       -3.296704294    10.746238916     0.291850253
 C       -1.961678995    10.514041613     0.649203361
 C       -1.442666268     9.222382374     0.638267364
Si       -3.953617958    12.464701673     0.298372012
 C       -3.196831474    13.477231368     1.619164546
 C       -2.758865657    12.984665366     2.785893016
 C       -2.152745543    13.792891983     3.844748205
 C       -1.732820212    13.159554101     5.023503516
 C       -1.153271598    13.878248940     6.056122727
 C       -1.017292802    15.280421958     5.963460333
 C       -1.439026156    15.916578132     4.780531419
 C       -1.974523056    15.174392426     3.735664005
 N       -0.426305058    15.996728592     7.020961660
 C       -0.681468387    15.500829098     8.386236752
 C       -0.464487089    17.466643251     6.930683990
 C       -2.173958508    15.505441970     8.763245457
 C       -2.413165424    15.416000555    10.279591872
 N       -1.829358489    16.507649369    11.095110911
 C       -1.808544677    17.776757326    10.470121005
 C       -3.030441997    18.294249265     9.990892515
 C       -3.067186298    19.531588615     9.371145778
 C       -1.904364816    20.305524804     9.232350694
 C       -0.702415328    19.800310052     9.731867369
 C       -0.648355999    18.558132815    10.355078123
 C       -0.605172514    16.108217162    11.808622530
 C       -1.997436801    21.607776452     8.568675199
 C       -0.953670668    22.425704018     8.383135953
Si       -0.998311242    24.059490963     7.565633873
 C        0.332953386    24.126553598     6.298072309
 C        0.809515391    22.940079632     5.726158622
 C        1.816873144    22.976734198     4.765629035
 C        2.363476645    24.196503964     4.345679182
 C        1.879887369    25.378685433     4.913770919
 C        0.874032095    25.346091785     5.878827745
 C        3.417239542    24.181974210     3.336440313
 C        4.027475393    25.276245815     2.850422521
 C        5.081179582    25.260053329     1.841091380
 C        5.563632622    24.077763960     1.274076839
 C        6.572743999    24.108202470     0.311562105
 C        7.127444577    25.324229218    -0.099357714
 C        6.646069712    26.511606829     0.468896285
 C        5.634433571    26.478463254     1.424485069
Si        8.459807450    25.382279500    -1.368437628
 C        9.163395127    23.687302104    -1.702955918
 C        7.760224555    26.083240629    -2.993922816
 C        9.826264395    26.550594290    -0.742837698
 C       -2.673878910    24.369637486     6.723295198
 C       -0.713531699    25.405412084     8.878846210
 C       -3.559222049    13.274034463    -1.377597621
 C       -5.840848870    12.448800805     0.538888409
 C       -0.652453632    -0.906952962    -1.541680450
 C       -0.620917994    -0.918991724     1.546676953
 H        1.173006312     2.683051539     0.642041204
 H        0.248087907     4.927859230     0.632190366
 H       -3.570024770     3.395466361    -0.631183268
 H       -2.686217277     1.130199169    -0.636198553
 H       -3.368120206     5.698438605    -0.313613380
 H       -0.605709196     6.760870501     0.594298143
 H       -4.220892876     7.534093532    -0.353523973
 H       -5.142103413     9.779869840    -0.368238941
 H       -1.290324096    11.328254570     0.943744928
 H       -0.402275790     9.061733058     0.914850253
 H       -3.137020861    14.552791094     1.394886728
 H       -2.815684344    11.915866598     3.037644563
 H       -1.851826917    12.080185425     5.127000342
 H       -0.804804511    13.352592953     6.940181353
 H       -1.346254074    16.991802970     4.664612721
 H       -2.276681561    15.690137839     2.823034875
 H        0.003072588    17.914450849     7.826150996
 H       -1.483452675    17.879514434     6.847300927
 H        0.131394232    17.791387892     6.058887402
 H       -0.827438645    15.218020134    12.423738747
 H       -0.311179795    16.910019074    12.509836792
 H        0.250225426    15.876324848    11.155574618
 H       -3.943565002    17.716725223    10.116774003
 H       -4.017518097    19.913131607     8.996308694
 H        0.214601945    20.385331272     9.641907679
 H        0.304040229    18.199009228    10.732629661
 H       -3.013453053    21.852073154     8.233247876
 H        0.053327026    22.152301880     8.742384965
 H        0.416656974    21.958759911     6.012497063
 H        2.179796720    22.045009548     4.335450335
 H        2.287408534    26.339389761     4.604626791
 H        0.536156264    26.302152192     6.287824408
 H        3.695657037    23.185479102     2.980919364
 H        3.749142152    26.272835288     3.205480530
 H        5.152145541    23.117471878     1.579673849
 H        6.907382331    23.150623235    -0.097060499
 H        7.042377762    27.491271275     0.187038264
 H        5.272236930    27.411087327     1.852870256
 H       -0.256481236    14.476826143     8.478693741
 H       -0.096576330    16.135202623     9.090642475
 H       -2.655224177    16.418405566     8.357123764
 H       -2.690322399    14.664920932     8.258870525
 H       -3.513223860    15.434319156    10.475015301
 H       -2.049092399    14.437838792    10.661701841
 H        2.263084648    -1.029294923    -0.050484644
 H        2.275771747     0.470804668     0.910281264
 H        2.259927927     0.551764397    -0.872600022
 H        9.989208323    23.736886987    -2.435060614
 H        8.400343102    23.000334313    -2.108934174
 H        9.566730587    23.235755386    -0.778394122
 H        8.608645017    26.033674858    -3.736348525
 C        6.593965800    25.242494240    -3.544940915
 C        7.304054805    27.549554295    -2.890143596
 H        9.333740229    27.557088017    -0.605717951
 C       10.394484619    26.115404150     0.620122954
 C       10.987248470    26.725836033    -1.737793839
 H       -3.456707130    24.218884351     7.522096436
 C       -2.822464993    25.800042188     6.174943201
 C       -2.951658138    23.372211846     5.583642387
 H       -0.766727263    26.390631730     8.331003234
 C       -1.792095185    25.412197717     9.976269024
 C        0.673454844    25.302347984     9.537987374
 H       -3.988006433    14.316364422    -1.329418333
 C       -2.044640681    13.391253665    -1.625876990
 C       -4.206311133    12.545008303    -2.567923373
 H       -6.261605745    11.855789112    -0.323686420
 C       -6.257009285    11.753284206     1.847510784
 C       -6.469140992    13.853377126     0.499255511
 H       -1.777324563    -0.909357465    -1.447078787
 C       -0.291666109    -0.180090769    -2.849772998
 C       -0.186155769    -2.370715216    -1.636195257
 H       -0.139905765    -1.938937240     1.510830855
 C       -0.188030131    -0.232749442     2.855320587
 C       -2.147737284    -1.112372696     1.572839516
 H        6.859585368    24.193151718    -3.726805087
 H        6.262008557    25.646882007    -4.511976648
 H        5.712071283    25.253247059    -2.888305331
 H        8.101207209    28.233457769    -2.572435231
 H        6.451910303    27.683613641    -2.209033346
 H        6.967587730    27.907900104    -3.874071520
 H        9.625943124    26.023375978     1.400952261
 H       11.114156769    26.862293024     0.984622255
 H       10.935741864    25.161082700     0.574887618
 H       10.667476213    27.105113900    -2.716961457
 H       11.550785209    25.798521996    -1.906041830
 H       11.709611890    27.457004151    -1.346334820
 H       -2.741494709    26.574135158     6.948707463
 H       -3.815396648    25.926232160     5.719090351
 H       -2.093497235    26.034698390     5.386298282
 H       -2.903381601    22.320347945     5.896562796
 H       -2.262883551    23.493936716     4.734970812
 H       -3.963031210    23.529490843     5.183016935
 H       -2.806748371    25.571381401     9.589098115
 H       -1.602190779    26.230535996    10.685661158
 H       -1.804222397    24.487384160    10.570804709
 H        1.502370748    25.331270708     8.816713132
 H        0.792783466    24.394297132    10.144802578
 H        0.830578361    26.150668870    10.219495553
 H       -1.515905289    13.951265029    -0.842300495
 H       -1.856976095    13.926398826    -2.567469223
 H       -1.551499614    12.413483186    -1.725289676
 H       -5.301484507    12.504596646    -2.511251824
 H       -3.839322954    11.515848161    -2.690653514
 H       -3.966841581    13.068268453    -3.505012738
 H       -5.893683906    10.719390738     1.928053153
 H       -7.352535729    11.701127496     1.916113200
 H       -5.916775177    12.292512115     2.743672678
 H       -6.284326318    14.387193626    -0.441593411
 H       -6.129030319    14.496710424     1.322963596
 H       -7.561561025    13.778971201     0.599528091
 H       -0.642909947     0.861378765    -2.878649677
 H       -0.761765409    -0.686296333    -3.704864064
 H        0.787649825    -0.170453002    -3.051769337
 H       -0.473012525    -2.975507593    -0.766285374
 H        0.899769064    -2.466939133    -1.767294365
 H       -0.644588678    -2.854547308    -2.510957222
 H        0.900066057    -0.128723101     2.954414431
 H       -0.519548963    -0.826448097     3.719288443
 H       -0.631056817     0.765788129     2.980486407
 H       -2.530245198    -1.677625121     0.713613027
 H       -2.697532018    -0.161796815     1.623394245
 H       -2.438912816    -1.681657070     2.467631927

