187   

Si        0.000000000     0.000000000     0.000000000
 C        1.865413482     0.000000000     0.000000000
 C       -0.674516712     1.712745612     0.000000000
 C        0.132664096     2.804156020    -0.336206345
 C       -0.387096226     4.098433582    -0.333476069
 C       -1.724446088     4.330915058    -0.001839985
 C       -2.533151770     3.235662332     0.330323106
 C       -2.016875245     1.942819213     0.330430017
 C       -2.310854891     5.667011495     0.014249663
 C       -1.646300508     6.797116006    -0.281076792
 C       -2.230828799     8.134021323    -0.265572493
 C       -1.418594631     9.227215265    -0.596342921
 C       -1.931545040    10.521455419    -0.595421501
 C       -3.274944727    10.750889084    -0.271434713
 C       -4.088022756     9.662103904     0.058600320
 C       -3.568435273     8.367979793     0.064808422
Si       -3.947253246    12.460088207    -0.271537479
 C       -5.774403205    12.431040378    -0.356382100
 C       -6.611478124    13.098925712     0.447051493
 C       -8.072541652    13.043005976     0.338782331
 C       -8.844753163    13.790472073     1.242355401
 C      -10.229391366    13.770414369     1.180476566
 C      -10.872911386    13.001723273     0.197525892
 C      -10.113976781    12.248854789    -0.703327641
 C       -8.724281605    12.265114757    -0.621255747
 N      -12.309589456    13.044519276     0.213248054
 C      -12.832955111    14.130516368    -0.646281645
 C      -12.943568725    11.739005877    -0.042697126
 C      -12.818663908    13.831900003    -2.158081597
 C      -12.930298542    15.117219498    -3.001037083
 N      -11.652904531    15.637238431    -3.536281258
 C      -10.757793570    16.076665613    -2.511476855
 C      -11.055254755    17.304097796    -1.894800874
 C      -10.231172035    17.793701584    -0.892043277
 C       -9.107509321    17.070159414    -0.468057774
 C       -8.810015632    15.861868365    -1.103353488
 C       -9.605021859    15.378042833    -2.135443760
 C      -11.046776224    14.741934684    -4.538512458
 C       -8.260544639    17.620197069     0.594303965
 C       -7.169626986    17.001036494     1.062416126
Si       -6.053674673    17.602303554     2.378459046
 C       -4.337777453    17.477947819     1.728495167
 C       -4.098156864    17.717771090     0.369568569
 C       -2.806660957    17.628929259    -0.143089561
 C       -1.727187918    17.298716489     0.686719275
 C       -1.970177814    17.063300986     2.042904317
 C       -3.261432085    17.155110528     2.560597749
 C       -0.393578343    17.218329669     0.101536592
 C        0.723871430    16.916279580     0.783964650
 C        2.057453266    16.836093385     0.197799972
 C        2.299936055    17.071481556    -1.157873233
 C        3.591618939    16.984053871    -1.676846807
 C        4.669192862    16.650665716    -0.850314598
 C        4.427978597    16.411607633     0.509539863
 C        3.138571358    16.504935250     1.025567408
Si        6.380283449    16.530973293    -1.519049603
 C        6.390607805    16.541737742    -3.384480878
 C        7.413455092    18.002313638    -0.894467393
 C        7.161306651    14.922334343    -0.866204964
 C       -6.414767810    19.414514890     2.824296913
 C       -6.293460535    16.550204602     3.943155579
 C       -3.328927466    13.378473984     1.272833878
 C       -3.332101417    13.400357427    -1.808569879
 C       -0.618884293    -0.919389752    -1.547404566
 C       -0.654951050    -0.905888653     1.541070570
 H        1.186045894     2.685526173    -0.604559142
 H        0.263131597     4.931182120    -0.595226740
 H       -3.577741293     3.394396574     0.591515751
 H       -2.695424398     1.128141854     0.598358625
 H       -3.368283299     5.699439716     0.292537989
 H       -0.588740501     6.764029155    -0.559173116
 H       -0.373966945     9.066116966    -0.855419474
 H       -1.250209678    11.336363643    -0.857946784
 H       -5.143136642     9.784839913     0.322886682
 H       -4.218950522     7.536269882     0.328766050
 H       -6.157552333    11.797104896    -1.174278131
 H       -6.259424446    13.741019585     1.265914099
 H       -8.355690391    14.399509694     2.004390988
 H      -10.829837088    14.348095071     1.882573975
 H      -10.601950753    11.641820608    -1.459839063
 H       -8.145886867    11.664928673    -1.323857938
 H      -14.028866249    11.836427542     0.130132107
 H      -12.555563913    11.008563773     0.689317146
 H      -12.786594110    11.333532658    -1.052489683
 H      -11.739264413    14.657548413    -5.393843709
 H      -10.817852081    13.728130199    -4.176272986
 H      -10.114709421    15.198404925    -4.915753625
 H      -11.927816936    17.867581557    -2.218578558
 H      -10.466085412    18.750296013    -0.427122280
 H       -7.925331856    15.290427934    -0.808946995
 H       -9.344827234    14.436176559    -2.611431689
 H       -8.609304605    18.588139394     0.973098630
 H       -6.857284160    16.021959934     0.653673954
 H       -4.905045284    17.975093525    -0.325620477
 H       -2.635960768    17.820629769    -1.201093142
 H       -1.148268065    16.809047387     2.709238418
 H       -3.390564826    16.964314095     3.629324356
 H       -0.350744163    17.426569645    -0.971580963
 H        0.683352281    16.709338113     1.857371384
 H        1.478059175    17.328620295    -1.823726884
 H        3.719501327    17.181312661    -2.744845188
 H        5.231375939    16.145550765     1.202543573
 H        2.971078700    16.316698909     2.084436062
 H      -13.871030082    14.341320431    -0.306206095
 H      -12.236662644    15.049622406    -0.434048222
 H      -11.888338130    13.291341803    -2.419051493
 H      -13.644794600    13.144736801    -2.411849895
 H      -13.601136221    14.941805450    -3.872310994
 H      -13.405682683    15.932131219    -2.410021125
 H        2.263314536    -1.028723360     0.060647697
 H        2.260657406     0.560450899     0.866770027
 H        2.275209235     0.461501312    -0.915375823
 H        7.417329284    16.433363565    -3.777486892
 H        5.976902532    17.481451060    -3.790431362
 H        5.791144019    15.706099471    -3.788957407
 H        8.427007002    17.888393968    -1.377638228
 C        6.828117406    19.359415806    -1.325767170
 C        7.613592496    18.014612236     0.631561410
 H        7.169382254    15.016899905     0.258686588
 C        6.332261031    13.676564788    -1.227599181
 C        8.612771674    14.711371348    -1.331927940
 H       -7.505148627    19.453274027     3.112188359
 C       -5.587854532    19.920582034     4.019580905
 C       -6.198604499    20.369168468     1.635988345
 H       -5.621253087    17.010767360     4.724633654
 C       -7.738566649    16.595187233     4.472125660
 C       -5.875904399    15.080658001     3.769904337
 H       -3.887338283    14.360901463     1.298229624
 C       -3.637704868    12.607089375     2.568856215
 C       -1.824716883    13.698253247     1.234499009
 H       -2.218772813    13.524775921    -1.672403862
 C       -3.567143421    12.622664082    -3.115465930
 C       -3.958709228    14.799038638    -1.935369642
 H       -0.135326491    -1.938109619    -1.511584160
 C       -2.145200463    -1.117134489    -1.574305560
 C       -0.187671590    -0.231454463    -2.855569720
 H       -1.779653760    -0.908118557     1.444103154
 C       -0.188306144    -2.369302130     1.637941330
 C       -0.296763692    -0.177441937     2.849111788
 H        6.735169773    19.468652788    -2.413978923
 H        7.483556893    20.176106477    -0.990369115
 H        5.840226738    19.558150755    -0.885826195
 H        8.100049268    17.109016923     1.015433422
 H        6.673465411    18.153594395     1.183772678
 H        8.262652142    18.855254231     0.917763690
 H        5.291679351    13.730928978    -0.876965179
 H        6.768165068    12.783824166    -0.756734415
 H        6.307361837    13.475551044    -2.306811390
 H        9.284882159    15.531037183    -1.046704412
 H        8.698243955    14.571050836    -2.417665478
 H        9.025742286    13.801718644    -0.871814919
 H       -5.760496400    19.352969517     4.942696175
 H       -5.856340203    20.962582702     4.247881265
 H       -4.506319836    19.921019427     3.823077121
 H       -6.790191193    20.107514485     0.748091612
 H       -5.145842610    20.429625219     1.324157211
 H       -6.494967098    21.390542656     1.913837239
 H       -8.077178289    17.606381987     4.731249061
 H       -7.821198418    16.001447368     5.393790448
 H       -8.468925567    16.172121938     3.767077117
 H       -4.860353839    14.955991915     3.367173026
 H       -6.562680373    14.515632702     3.123709512
 H       -5.883745275    14.569345873     4.743173187
 H       -4.707754166    12.406199232     2.714486637
 H       -3.305454006    13.186458894     3.441900020
 H       -3.111648759    11.643192214     2.627241518
 H       -1.537680144    14.343344988     0.391995035
 H       -1.190653739    12.802527317     1.208282864
 H       -1.537741442    14.252755264     2.140579417
 H       -3.114561989    11.621293651    -3.114630130
 H       -3.115130693    13.161696199    -3.960057882
 H       -4.631573951    12.505380894    -3.358991464
 H       -3.783345435    15.434874967    -1.054589944
 H       -5.043352128    14.769432924    -2.111662664
 H       -3.520799148    15.331966600    -2.790552546
 H       -2.526730142    -1.683232379    -0.715213318
 H       -2.433931813    -1.687461427    -2.469191564
 H       -2.697699395    -0.168211507    -1.625710396
 H        0.900098603    -0.124192233    -2.954599485
 H       -0.633376939     0.765992368    -2.980300423
 H       -0.517294709    -0.825494682    -3.719994317
 H       -0.467860019    -2.973858720     0.765542509
 H       -0.652964594    -2.854144266     2.508856709
 H        0.896731879    -2.464469791     1.777006022
 H       -0.648832757     0.863827826     2.876346999
 H        0.782139909    -0.166701781     3.053087786
 H       -0.768182821    -0.683251166     3.703726938

