187   

Si        0.000000000     0.000000000     0.000000000
 C        1.865622572     0.000000000     0.000000000
 C       -0.651579335     1.722603494     0.000000000
 C        0.088516320     2.753653263     0.589418382
 C       -0.395558201     4.061068300     0.594873276
 C       -1.631663718     4.368182669     0.019331817
 C       -2.374765833     3.333640099    -0.563780496
 C       -1.893839706     2.026588125    -0.570827870
 C       -2.175472399     5.722387738     0.003186532
 C       -1.561088774     6.796310909     0.527759116
 C       -2.097426969     8.153074380     0.515950562
 C       -1.342706422     9.177948484     1.103107518
 C       -1.811114036    10.488597054     1.117242739
 C       -3.049732974    10.805468144     0.544258136
 C       -3.803981737     9.785301823    -0.043643114
 C       -3.329947742     8.473547377    -0.058881433
Si       -3.661957875    12.540132062     0.566920365
 C       -5.430686969    12.598117245     0.110609731
 C       -5.968208642    13.405122122    -0.813587124
 C       -7.389789991    13.431521476    -1.160231561
 C       -7.826901011    14.325735258    -2.148581841
 C       -9.160021609    14.393173740    -2.516128791
 C      -10.106937848    13.520316770    -1.936199697
 C       -9.668589729    12.620780565    -0.945845670
 C       -8.335529938    12.599752240    -0.555373752
 N      -11.455566431    13.602993834    -2.321224260
 C      -11.731368505    13.955784699    -3.724309176
 C      -12.371332499    12.577896749    -1.795128777
 C      -11.132015224    12.963491187    -4.741598177
 C      -11.868815680    13.016838792    -6.092607085
 N      -12.901473455    11.969660954    -6.272942299
 C      -13.889246420    11.966201300    -5.249724676
 C      -14.700713826    13.112383571    -5.130207159
 C      -15.680902992    13.171294431    -4.153969298
 C      -15.912561904    12.083082028    -3.297654114
 C      -15.123269844    10.940257669    -3.437858464
 C      -14.124723121    10.873001862    -4.404583870
 C      -12.316711509    10.656526171    -6.597840772
 C      -16.961982434    12.200877751    -2.283526182
 C      -17.277608838    11.235246569    -1.410296584
Si      -18.593833467    11.404396397    -0.150487598
 C      -18.776627230    13.159249287     0.369409644
 C      -17.631531972    13.956312164     0.490937036
 C      -17.735338417    15.289465126     0.882628350
 C      -18.981393044    15.853933759     1.171521185
 C      -20.124314644    15.052608016     1.055913227
 C      -20.024748544    13.720127821     0.661385269
 C      -19.135970389    17.244869093     1.584925807
 C      -18.121692521    18.114038391     1.732745216
 C      -18.271055839    19.505429052     2.145761443
 C      -19.512619139    20.078135499     2.433156660
 C      -19.608391837    21.413522370     2.824815761
 C      -18.462108542    22.207311303     2.932383606
 C      -17.215490887    21.634841600     2.644824802
 C      -17.122584006    20.300534246     2.259453178
Si      -18.571355014    23.971232224     3.447931923
 C      -20.325357524    24.601486569     3.371524143
 C      -17.932736873    24.148631350     5.232298828
 C      -17.452932165    24.999315208     2.300714960
 C      -20.226522407    10.742658693    -0.865005426
 C      -18.116796723    10.356855921     1.363267533
 C       -3.464097608    13.239831905     2.325863030
 C       -2.621307755    13.589760675    -0.631401677
 C       -0.649793862    -0.919752710    -1.534768258
 C       -0.637104175    -0.901370688     1.549854628
 H        1.061930929     2.576179083     1.055327148
 H        0.202439858     4.845402953     1.055542676
 H       -3.340462568     3.550187475    -1.016515104
 H       -2.519549056     1.261448314    -1.038191986
 H       -3.151898056     5.818970718    -0.479804621
 H       -0.584098284     6.696409657     1.010373042
 H       -0.379349583     8.949081247     1.554521515
 H       -1.180067412    11.245756952     1.591062113
 H       -4.775951822     9.977401847    -0.509432858
 H       -3.933555758     7.696684214    -0.524209141
 H       -6.057121074    11.898168316     0.687418449
 H       -5.371365340    14.118855668    -1.397349567
 H       -7.108806116    14.990675050    -2.629462038
 H       -9.472182277    15.123409916    -3.256954712
 H      -10.364619954    11.937272006    -0.470473263
 H       -8.025465015    11.904421670     0.226446537
 H      -13.397135370    12.760062869    -2.168457826
 H      -12.412878185    12.657583399    -0.693989022
 H      -12.091091851    11.550077403    -2.074941547
 H      -11.730400293    10.753137924    -7.528808939
 H      -13.126840895     9.935059831    -6.803664647
 H      -11.660883577    10.242995222    -5.816105041
 H      -14.557976836    13.944877449    -5.816276002
 H      -16.291919433    14.070418526    -4.061298966
 H      -15.287867415    10.080558169    -2.787129640
 H      -13.524536665     9.971471162    -4.482911249
 H      -17.469565383    13.176524354    -2.299274591
 H      -16.764668961    10.262180515    -1.418488794
 H      -16.628457145    13.568924359     0.280416129
 H      -16.831041018    15.890412787     0.964039613
 H      -21.103804553    15.472472523     1.276662851
 H      -20.950961373    13.143870951     0.589851580
 H      -20.167425280    17.554277338     1.776137264
 H      -17.090144217    17.802587149     1.541812232
 H      -20.420310582    19.482881379     2.353477466
 H      -20.606976922    21.805343260     3.037062202
 H      -16.285593038    22.206834612     2.712071584
 H      -16.145325997    19.872931580     2.042629068
 H      -12.837583112    14.025035176    -3.848191254
 H      -11.347467031    14.983697209    -3.912767123
 H      -10.055958226    13.177641653    -4.880511216
 H      -11.166429343    11.936935172    -4.329022171
 H      -12.362017636    14.004715309    -6.234139964
 H      -11.140799656    12.924144407    -6.929350158
 H        2.264590721    -1.028136506    -0.061944859
 H        2.277744838     0.462190232     0.913718251
 H        2.257991839     0.562165218    -0.867207122
 H      -20.376018580    25.671296824     3.642277538
 H      -20.988648200    24.052161731     4.062278821
 H      -20.739106601    24.497550371     2.352005664
 H      -18.073895246    25.235602661     5.500159641
 C      -18.739019241    23.301488971     6.233784325
 C      -16.439844143    23.808976188     5.389591489
 H      -16.408917848    24.593387788     2.441240265
 C      -17.824597050    24.837132157     0.815662974
 C      -17.426377135    26.497807756     2.650503873
 H      -20.994888390    10.859165973    -0.046734874
 C      -20.700091286    11.550205838    -2.086911852
 C      -20.163406204     9.253047300    -1.247114604
 H      -18.031112598     9.294522487     0.993218951
 C      -16.755957809    10.767933608     1.953908518
 C      -19.176930800    10.391403661     2.477559625
 H       -2.358349312    13.211502572     2.548423480
 C       -3.939531954    14.697795713     2.450450895
 C       -4.182660597    12.384214610     3.384297519
 H       -3.116174488    14.603755002    -0.660884534
 C       -1.164245947    13.787863122    -0.177386325
 C       -2.618454839    13.014362390    -2.059705370
 H       -1.775556125    -0.906133449    -1.452007617
 C       -0.264154875    -0.219206079    -2.850407656
 C       -0.202964408    -2.391213822    -1.602853804
 H       -0.181961698    -1.933021910     1.516051077
 C       -0.187061498    -0.223881054     2.857142274
 C       -2.168667407    -1.054479022     1.574190241
 H      -19.809990253    23.541347260     6.245799435
 H      -18.373686521    23.477455671     7.255822878
 H      -18.641935751    22.220943267     6.054745811
 H      -15.783222874    24.427459940     4.764743900
 H      -16.217364934    22.754474882     5.173201220
 H      -16.123587018    23.980574343     6.428962848
 H      -17.811742835    23.791253582     0.476879209
 H      -17.100807815    25.372732175     0.184915753
 H      -18.812105537    25.251113764     0.572453436
 H      -17.098048819    26.698685683     3.678507045
 H      -18.398309568    26.988404165     2.507753090
 H      -16.718011951    27.023656546     1.993747647
 H      -20.817590424    12.623829876    -1.884723412
 H      -21.683956577    11.190248921    -2.419317877
 H      -20.027252142    11.450188022    -2.951123850
 H      -19.911580489     8.596479969    -0.404584743
 H      -19.449841020     9.048923367    -2.057507847
 H      -21.145078848     8.917942837    -1.612661059
 H      -15.931820632    10.718181424     1.229478077
 H      -16.483936389    10.092663377     2.777682612
 H      -16.764571379    11.781778611     2.380010256
 H      -20.161039594    10.027679664     2.155429605
 H      -19.315370856    11.394603063     2.906074974
 H      -18.868421964     9.743354666     3.310849249
 H       -3.411019434    15.387276534     1.779690227
 H       -3.763026564    15.065666046     3.471253539
 H       -5.017071567    14.813408936     2.264037599
 H       -3.861665591    11.332987539     3.385513396
 H       -5.275874127    12.398007392     3.276144324
 H       -3.967471222    12.771163238     4.390506398
 H       -1.074632751    14.271977025     0.803319857
 H       -0.635252104    14.438527845    -0.889037003
 H       -0.595157065    12.848409901    -0.143951507
 H       -3.623757045    12.879723247    -2.481960442
 H       -2.103890984    12.044830778    -2.126631623
 H       -2.085587692    13.693339159    -2.739857203
 H       -0.593493025     0.828536321    -2.898502344
 H       -0.736048134    -0.729379295    -3.702086179
 H        0.817044892    -0.233700219    -3.042488780
 H       -0.510994146    -2.979995017    -0.729157154
 H        0.883233780    -2.504751686    -1.716768903
 H       -0.655728758    -2.880555237    -2.477484620
 H        0.903410911    -0.151995668     2.958038811
 H       -0.537508703    -0.805153356     3.722186857
 H       -0.601656055     0.787274588     2.978751567
 H       -2.563288763    -1.620736014     0.721041786
 H       -2.694259317    -0.089472960     1.609000631
 H       -2.477531714    -1.603863540     2.475375599

