187   

Si        0.000000000     0.000000000     0.000000000
 C        1.865124918     0.000000000     0.000000000
 C       -0.683677390     1.707880278     0.000000000
 C        0.131237669     2.811923912     0.268599970
 C       -0.399491783     4.101651318     0.265513680
 C       -1.752834314     4.317056382    -0.007632133
 C       -2.567280420     3.209154952    -0.277095122
 C       -2.041588536     1.920372197    -0.273324319
 C       -2.351173426     5.646784902    -0.021840273
 C       -1.687559929     6.789844473     0.219876932
 C       -2.296871251     8.115265763     0.202931749
 C       -1.496968263     9.232906137     0.471834666
 C       -2.041074431    10.515348186     0.465235940
 C       -3.405304403    10.707596367     0.217890124
 C       -4.206411016     9.592075718    -0.047959869
 C       -3.653590474     8.313230839    -0.065634881
Si       -4.159802507    12.383091021     0.200889090
 C       -5.645849146    12.457613219     1.265986508
 C       -6.844461057    12.940628297     0.914153916
 C       -8.009709397    12.980761790     1.801727335
 C       -9.213949556    13.512577850     1.315004271
 C      -10.341801315    13.571997006     2.115183681
 C      -10.297988703    13.142859447     3.456479834
 C       -9.095037103    12.608381574     3.944083381
 C       -7.980568236    12.509495707     3.115552495
 N      -11.487775038    13.226581481     4.232950571
 C      -12.096375508    14.582310462     4.210811629
 C      -11.400080271    12.647645943     5.584038613
 C      -13.458781628    14.670351379     4.918834393
 C      -14.538070075    13.739283439     4.329982410
 N      -15.037670421    14.084455453     2.983959123
 C      -14.196457185    13.686912181     1.914940565
 C      -13.848685449    12.320803064     1.841445999
 C      -13.031748186    11.867866208     0.823778419
 C      -12.598307666    12.735516936    -0.194052792
 C      -12.979115421    14.075494507    -0.143385858
 C      -13.775626786    14.553099429     0.895590557
 C      -15.601018456    15.440865360     2.902035660
 C      -11.736383025    12.178852334    -1.233779799
 C      -11.232608939    12.856612945    -2.274141977
Si      -10.161586070    12.019466365    -3.503370381
 C       -9.274550541    10.668829805    -2.613388605
 C       -8.854956667    10.904448215    -1.297468059
 C       -8.181350468     9.921721122    -0.577688579
 C       -7.920950081     8.673109859    -1.149807065
 C       -8.337832660     8.438765685    -2.465907379
 C       -8.999047771     9.427068365    -3.194139860
 C       -7.217808228     7.619983565    -0.425200208
 C       -6.776970980     7.743834643     0.838558480
 C       -6.072199446     6.708708685     1.585946847
 C       -5.778435324     5.453921164     1.047530738
 C       -5.101542202     4.496784026     1.803595248
 C       -4.681710945     4.783678074     3.106108778
 C       -4.966294953     6.046695819     3.643109289
 C       -5.653676623     6.995454445     2.892443002
Si       -3.787540954     3.529955773     4.114943221
 C       -3.558647825     1.939771027     3.168084272
 C       -2.067128866     4.161591729     4.629595590
 C       -4.811961382     3.232294791     5.691479883
 C      -11.198244244    11.327497212    -4.934189358
 C       -8.918669078    13.283324748    -4.187864585
 C       -2.944160148    13.692576824     0.858474397
 C       -4.582051047    12.804489778    -1.608484886
 C       -0.662911410    -0.911952052    -1.532609650
 C       -0.605050664    -0.904555424     1.563029282
 H        1.197704663     2.706499481     0.484542150
 H        0.255795154     4.945139842     0.475408263
 H       -3.622613319     3.357216302    -0.499931687
 H       -2.724295321     1.095324406    -0.494168872
 H       -3.425312923     5.663254994    -0.237200476
 H       -0.618269267     6.779066086     0.447027860
 H       -0.437932004     9.102476803     0.682651764
 H       -1.363579959    11.349002519     0.665293244
 H       -5.281233872     9.679203055    -0.249856582
 H       -4.298851465     7.461161758    -0.281521074
 H       -5.470074706    12.060829563     2.279933458
 H       -7.051275503    13.343909286    -0.086418630
 H       -9.273581245    13.876562545     0.287574049
 H      -11.277158577    13.948114694     1.700008410
 H       -9.013368501    12.266632293     4.970538652
 H       -7.065694000    12.071548584     3.516416310
 H      -12.413263377    12.570521392     6.013022005
 H      -10.766927180    13.221010771     6.278381499
 H      -11.014992197    11.613971133     5.514257819
 H      -16.322970956    15.582516532     3.724157954
 H      -16.164382090    15.538763217     1.956346920
 H      -14.853083446    16.247638058     2.951563228
 H      -14.204582878    11.629594706     2.602762583
 H      -12.731976870    10.818626794     0.804450069
 H      -12.655297440    14.764102041    -0.923329932
 H      -14.048175234    15.602607906     0.910639607
 H      -11.527649460    11.107479099    -1.071040500
 H      -11.449991720    13.917175854    -2.443878265
 H       -9.037119722    11.858577355    -0.786577846
 H       -7.864363580    10.141616485     0.443057199
 H       -8.140618203     7.475973009    -2.931867446
 H       -9.291078302     9.190451764    -4.219643237
 H       -7.066205726     6.694544096    -0.985297716
 H       -6.939535533     8.674145419     1.395410687
 H       -6.091753376     5.207176742     0.035279375
 H       -4.912898772     3.525386277     1.337757534
 H       -4.663805889     6.326469075     4.656168900
 H       -5.862686275     7.972675624     3.324910425
 H      -11.406235374    15.332858733     4.658788580
 H      -12.238958882    14.871669015     3.141292524
 H      -13.345373002    14.446954044     5.996698279
 H      -13.804007553    15.721873095     4.875039770
 H      -14.142247009    12.695830355     4.308369223
 H      -15.422819861    13.726205894     5.007449427
 H        2.262234386    -1.029995065    -0.039686098
 H        2.275339048     0.479746125     0.905832791
 H        2.261787127     0.541608314    -0.877868859
 H       -2.999642540     1.195847903     3.762941026
 H       -2.989111262     2.113435263     2.233226258
 H       -4.529147931     1.489495038     2.897151434
 H       -1.624742714     3.336296423     5.259777327
 C       -1.139493153     4.390923774     3.425048941
 C       -2.091953433     5.445602948     5.478035555
 H       -4.856059691     4.227330296     6.222473979
 C       -6.257552127     2.800215544     5.384078803
 C       -4.177911243     2.210393716     6.652111467
 H      -10.470380784    10.812067304    -5.625761774
 C      -12.228648557    10.285918531    -4.461150080
 C      -11.928278287    12.416367258    -5.740990683
 H       -9.532083137    14.040078384    -4.757692599
 C       -8.159394739    14.030851102    -3.076568932
 C       -7.905419436    12.661373225    -5.164347361
 H       -2.006216272    13.587069020     0.240780171
 C       -3.464537222    15.131797225     0.689325811
 C       -2.573078694    13.473059008     2.336550580
 H       -5.208123097    13.742144782    -1.571690808
 C       -3.338795900    13.096428865    -2.468747026
 C       -5.401938979    11.702592401    -2.300001365
 H       -1.787275559    -0.911335090    -1.431777597
 C       -0.308581435    -0.191204360    -2.845955352
 C       -0.199374529    -2.376729193    -1.623112652
 H       -0.068769720    -1.897002455     1.565363520
 C       -0.232283940    -0.155087065     2.855774695
 C       -2.118708829    -1.181989701     1.573696987
 H       -0.974630993     3.486158861     2.822002269
 H       -0.148148521     4.719097867     3.765722464
 H       -1.507365059     5.172758395     2.742231982
 H       -2.730596482     5.375423512     6.366508666
 H       -2.407879655     6.325819562     4.899584382
 H       -1.079990122     5.670407125     5.844826711
 H       -6.796220930     3.513939715     4.744589967
 H       -6.835932316     2.726889189     6.315690620
 H       -6.317483138     1.814616760     4.904181074
 H       -3.171465489     2.494802786     6.985448113
 H       -4.116681625     1.201205000     6.223633625
 H       -4.788395470     2.121490642     7.562100674
 H      -11.780835834     9.440512389    -3.920672973
 H      -12.754656265     9.855361396    -5.324671293
 H      -13.004018692    10.717853900    -3.811488354
 H      -11.251982090    13.155912742    -6.187876689
 H      -12.675243210    12.960166352    -5.146002598
 H      -12.476822526    11.959384426    -6.577431832
 H       -8.821770322    14.561647653    -2.379635787
 H       -7.500842551    14.792478290    -3.517173541
 H       -7.509762517    13.368664635    -2.484338502
 H       -8.374424905    12.220498255    -6.053427116
 H       -7.280712017    11.884215155    -4.700030092
 H       -7.214154562    13.432293684    -5.533871249
 H       -3.671119287    15.400631043    -0.354697189
 H       -2.712417942    15.848470397     1.048206954
 H       -4.377334006    15.327409120     1.269901760
 H       -2.187558812    12.466947675     2.550397133
 H       -3.416973700    13.654437960     3.016706399
 H       -1.781533888    14.175388804     2.633947459
 H       -2.736863677    13.935609161    -2.099150497
 H       -3.644430953    13.363716382    -3.490573175
 H       -2.674050519    12.226423073    -2.566811995
 H       -6.328527559    11.436384909    -1.768411415
 H       -4.832922433    10.773284196    -2.447417092
 H       -5.708101464    12.031946231    -3.303652820
 H       -0.660815844     0.849866893    -2.877789375
 H       -0.782783203    -0.701723985    -3.696217527
 H        0.769630728    -0.181949902    -3.053563996
 H       -0.477653613    -2.975938130    -0.746536291
 H        0.885152512    -2.474679937    -1.764595785
 H       -0.667062103    -2.865321066    -2.490299927
 H        0.847439110     0.003403537     2.971801956
 H       -0.553246427    -0.734409866     3.733122662
 H       -0.722719413     0.826842496     2.937088587
 H       -2.460015270    -1.773440322     0.715120996
 H       -2.720504151    -0.262000176     1.611548819
 H       -2.387178408    -1.761818355     2.468757064

