187   

Si        0.000000000     0.000000000     0.000000000
 C        1.864889287     0.000000000     0.000000000
 C       -0.673018801     1.712193112     0.000000000
 C        0.107897891     2.797931466     0.408563001
 C       -0.416146879     4.090829654     0.403204336
 C       -1.735799150     4.321760467     0.008455377
 C       -2.519369523     3.231138944    -0.391866228
 C       -1.997095860     1.942008880    -0.397513994
 C       -2.333699533     5.650775729    -0.016072554
 C       -1.710335325     6.790451240     0.327789761
 C       -2.343921378     8.104458690     0.289908446
 C       -1.601280119     9.229747728     0.670267763
 C       -2.172665144    10.499531927     0.646790701
 C       -3.495416256    10.671924165     0.220724629
 C       -4.234887073     9.551773275    -0.172595426
 C       -3.661763716     8.282138414    -0.140368548
Si       -4.266651741    12.340284745     0.182917329
 C       -6.075322638    12.159474287    -0.006060931
 C       -6.844695821    12.792086085    -0.901110580
 C       -8.293084409    12.608035464    -1.007370678
 C       -8.999546076    13.324054306    -1.984392182
 C      -10.370451001    13.184808370    -2.125106517
 C      -11.083654957    12.277639663    -1.311249529
 C      -10.374673515    11.554425982    -0.333084931
 C       -9.006293800    11.736320055    -0.180381153
 N      -12.471613725    12.147543677    -1.465278765
 C      -13.035717851    12.319043031    -2.812964471
 C      -13.154526255    11.143220551    -0.637807287
 C      -12.466177937    11.373868552    -3.885692891
 C      -13.010175164     9.944891161    -3.714560017
 N      -12.516693480     8.952386044    -4.678187969
 C      -11.238674373     8.380871668    -4.449717672
 C      -10.326165595     8.854218201    -3.493786739
 C       -9.092814146     8.231883334    -3.336980018
 C       -8.760200863     7.089823333    -4.075730907
 C       -9.687535483     6.602450338    -5.004405246
 C      -10.908177133     7.230938056    -5.193104333
 C      -12.773886691     9.325102576    -6.082041874
 C       -7.450095223     6.462969623    -3.881739218
 C       -7.042940788     5.369870100    -4.541607315
Si       -5.421888616     4.548664410    -4.338107555
 C       -4.074931447     5.704372977    -3.865435300
 C       -4.190364229     7.076401854    -4.111679151
 C       -3.164357401     7.947544118    -3.750349576
 C       -1.980859284     7.460817911    -3.189093097
 C       -1.857667710     6.083818774    -2.965780124
 C       -2.893318473     5.213969175    -3.295830645
 C       -0.883096480     8.337302090    -2.797109823
 C       -0.886975442     9.670518943    -2.960918910
 C        0.201361796    10.559357255    -2.574717579
 C        1.380236925    10.098685087    -1.983373129
 C        2.394291030    10.989290888    -1.631120129
 C        2.246729143    12.360764089    -1.859455573
 C        1.067726616    12.824207712    -2.458465952
 C        0.062874971    11.931895578    -2.818687512
Si        3.567248526    13.557578505    -1.405116285
 C        4.858110362    12.773524725    -0.310481731
 C        4.410652288    14.214815154    -2.978933774
 C        2.732300730    15.015675660    -0.507134026
 C       -5.598720981     3.244856096    -2.958754637
 C       -4.956231803     3.681380704    -5.962826788
 C       -3.903716124    13.221267403     1.830063122
 C       -3.524362183    13.367195756    -1.233228178
 C       -0.656644915    -0.895204348    -1.548038539
 C       -0.631122319    -0.922214619     1.539667524
 H        1.144282614     2.675594580     0.733561226
 H        0.213351956     4.920997206     0.717250117
 H       -3.552474016     3.391714228    -0.700048678
 H       -2.655587072     1.131380876    -0.721679204
 H       -3.375810537     5.672450856    -0.355168127
 H       -0.670964553     6.785760623     0.663852632
 H       -0.567645778     9.114342596     0.989930554
 H       -1.547588069    11.340979026     0.957860760
 H       -5.268327992     9.629249339    -0.525966135
 H       -4.252875216     7.426041350    -0.463228510
 H       -6.516795805    11.461619760     0.725701383
 H       -6.442568891    13.499363328    -1.637313631
 H       -8.465311449    14.011808511    -2.640679684
 H      -10.892108192    13.778458574    -2.869451919
 H      -10.882986032    10.847861968     0.314580828
 H       -8.483071328    11.170346896     0.592630984
 H      -14.233530868    11.130703719    -0.862782356
 H      -13.052170384    11.428880280     0.426543075
 H      -12.761195507    10.120006786    -0.765325715
 H      -13.803859895     9.705565030    -6.180584064
 H      -12.695766457     8.430064319    -6.723111409
 H      -12.075303996    10.085629525    -6.466332865
 H      -10.556560750     9.725695576    -2.885336960
 H       -8.382156342     8.639632796    -2.615362882
 H       -9.454888917     5.712435508    -5.590052591
 H      -11.620542521     6.827086656    -5.908019373
 H       -6.827858435     6.978102872    -3.136242205
 H       -7.701867143     4.872009902    -5.270775616
 H       -5.078843143     7.512051874    -4.579953672
 H       -3.290861719     9.015499260    -3.919282630
 H       -0.945856054     5.684459443    -2.522895084
 H       -2.740139639     4.150826610    -3.086768122
 H       -0.028317451     7.829820320    -2.341653085
 H       -1.749213353    10.171318890    -3.411616515
 H        1.515111793     9.035939528    -1.791066832
 H        3.294306389    10.572338577    -1.172237223
 H        0.898453473    13.884809742    -2.663771726
 H       -0.843454316    12.308145385    -3.291882646
 H      -14.141932631    12.210030771    -2.752696523
 H      -12.859923205    13.378675156    -3.119026475
 H      -12.723274330    11.761034800    -4.888758603
 H      -11.358538484    11.373457679    -3.848855603
 H      -12.790394075     9.565527756    -2.690194558
 H      -14.122418865     9.953110554    -3.805560840
 H        2.263676780    -1.029314735    -0.041700507
 H        2.275279224     0.479084875     0.906049179
 H        2.258863268     0.544939873    -0.877159398
 H        5.626878186    13.508074985    -0.011306569
 H        5.374172037    11.940858938    -0.819752974
 H        4.403365541    12.373822902     0.613874474
 H        5.230694822    14.902049491    -2.620523143
 C        5.057547776    13.093020292    -3.812053993
 C        3.474059174    15.027288768    -3.891038251
 H        2.060137641    15.503688853    -1.271619136
 C        1.850112282    14.558330221     0.669030688
 C        3.726372169    16.078608031    -0.007623058
 H       -4.573131508     2.794696646    -2.820659260
 C       -6.034227590     3.877368005    -1.624387911
 C       -6.570348213     2.106114497    -3.312719687
 H       -5.811806757     2.986901045    -6.203565910
 C       -4.805455315     4.674535621    -7.129104823
 C       -3.673296684     2.838449744    -5.853058100
 H       -2.780318821    13.313709809     1.890010535
 C       -4.504245920    14.635915354     1.902788644
 C       -4.377755963    12.410244899     3.049133027
 H       -4.151442754    14.303153697    -1.297597703
 C       -2.067346679    13.791965662    -0.981920319
 C       -3.611891804    12.636897487    -2.585978134
 H       -1.777721942    -0.944477152    -1.424625070
 C       -0.360114535    -0.124676380    -2.847621567
 C       -0.136299372    -2.336474010    -1.688636486
 H       -0.169327402    -1.950525686     1.492648876
 C       -0.181589474    -0.256162051     2.853078061
 C       -2.161391642    -1.086920269     1.568863198
 H        5.806859734    12.513764016    -3.257391985
 H        5.580549650    13.521162524    -4.679232335
 H        4.321384968    12.383447664    -4.216742586
 H        3.035432594    15.903017471    -3.396520645
 H        2.652796217    14.424539768    -4.304012650
 H        4.034094685    15.412769833    -4.755565217
 H        1.068299995    13.844162523     0.370897272
 H        1.329763186    15.421591473     1.107508059
 H        2.425291562    14.098272713     1.483211696
 H        4.348564689    16.501878832    -0.806721630
 H        4.398252015    15.701945488     0.774998431
 H        3.180752899    16.923659289     0.436868108
 H       -5.367850649     4.681900189    -1.282388504
 H       -6.044738742     3.117517235    -0.830369606
 H       -7.052120699     4.292676745    -1.663348608
 H       -6.283057001     1.553191887    -4.215992559
 H       -7.604437049     2.451549203    -3.447854702
 H       -6.598507957     1.368645950    -2.497589126
 H       -5.706033393     5.277375812    -7.308697445
 H       -4.605470882     4.132297502    -8.063902434
 H       -3.964340015     5.369745943    -6.991521740
 H       -3.735895395     2.045606981    -5.096536022
 H       -2.781866020     3.444204300    -5.632695945
 H       -3.471028805     2.335626151    -6.809542729
 H       -4.145002503    15.302722396     1.108485057
 H       -4.229285477    15.113578919     2.853918716
 H       -5.602933313    14.636615671     1.865377145
 H       -3.953679896    11.396654172     3.088257454
 H       -5.470730865    12.315758840     3.102445501
 H       -4.065651894    12.908738907     3.977736744
 H       -1.944651858    14.419517201    -0.090191016
 H       -1.696198170    14.387712709    -1.828148899
 H       -1.379900107    12.937054587    -0.886235071
 H       -4.638092689    12.362960618    -2.868214796
 H       -3.010702061    11.715575250    -2.608454668
 H       -3.232134301    13.281763001    -3.390153094
 H       -0.752995650     0.902585050    -2.842848689
 H       -0.829779258    -0.631918289    -3.702261624
 H        0.712381664    -0.066394006    -3.075722374
 H       -0.372371175    -2.970664554    -0.824396806
 H        0.948262616    -2.385997824    -1.853463316
 H       -0.601277381    -2.819999165    -2.560060386
 H        0.908600740    -0.174060444     2.949863626
 H       -0.522153016    -0.851130259     3.712731208
 H       -0.605187226     0.749459389     2.988466240
 H       -2.556326414    -1.643216631     0.709513549
 H       -2.693325908    -0.126269539     1.622494451
 H       -2.461003479    -1.652653858     2.463161093

