187   

Si        0.000000000     0.000000000     0.000000000
 C        1.865307589     0.000000000     0.000000000
 C       -0.677763999     1.711442917     0.000000000
 C        0.146743595     2.815195440    -0.239497098
 C       -0.379726476     4.106363055    -0.236622426
 C       -1.742067001     4.322679138    -0.013112158
 C       -2.567893330     3.215600550     0.221413443
 C       -2.043248149     1.926200086     0.231807765
 C       -2.332818581     5.656643331    -0.001944720
 C       -1.641266813     6.791135841    -0.201442359
 C       -2.212913522     8.132417693    -0.194125083
 C       -3.571030811     8.376667043     0.026714442
 C       -4.068547961     9.679239014     0.023732541
 C       -3.209958748    10.769789101    -0.159669030
 C       -1.846988743    10.525971896    -0.367888059
 C       -1.357230755     9.223235063    -0.391689812
Si       -3.881729567    12.484528345    -0.161207273
 C       -2.716928473    13.702053115    -0.867776180
 C       -1.808946327    13.439765412    -1.816640839
 C       -0.887569654    14.436328360    -2.364545790
 C        0.019629758    14.035199117    -3.358293137
 C        0.912034008    14.938361172    -3.909365047
 C        0.936150955    16.271860446    -3.455505036
 C        0.032255981    16.677895263    -2.465478918
 C       -0.878043206    15.765881517    -1.940350875
 N        1.880889849    17.141911347    -4.069716190
 C        3.285637538    16.791928112    -3.775655414
 C        1.596484942    18.580554889    -3.939983870
 C        3.786129845    17.136832084    -2.358537114
 C        3.328660527    16.132646799    -1.287865975
 N        3.766986961    14.745016033    -1.586270098
 C        3.310879169    13.840016349    -0.552062697
 C        3.724104885    13.938450557     0.783126846
 C        3.244714097    13.034613689     1.720974807
 C        2.354809532    12.016021188     1.348377192
 C        1.946210336    11.931585833     0.013657177
 C        2.411766694    12.840447881    -0.932989876
 C        5.233057898    14.622274164    -1.754523644
 C        1.889074009    11.096623146     2.391945161
 C        1.042043266    10.078932706     2.191743060
Si        0.477197264     8.945188524     3.517323191
 C        1.758019264     8.756292217     4.824164412
 C        3.113641655     8.756296977     4.468288423
 C        4.099278782     8.614724509     5.440983977
 C        3.756959591     8.456848032     6.790661657
 C        2.404412780     8.449237582     7.141718520
 C        1.414900111     8.595629953     6.169981176
 C        4.825704664     8.312154463     7.773518915
 C        4.634508803     8.159012850     9.094758462
 C        5.702865968     8.014281449    10.078014506
 C        7.055605226     8.021702204     9.728503029
 C        8.044680261     7.880166239    10.701885463
 C        7.700550248     7.720984762    12.047776704
 C        6.344186489     7.711867506    12.400856872
 C        5.359654592     7.858738016    11.427903339
Si        8.992756166     7.532891865    13.345175046
 C       10.676214983     7.232385981    12.599659744
 C        9.068627134     9.114036955    14.402498427
 C        8.499955880     6.075865589    14.466671949
 C       -1.151485534     9.581878502     4.258825943
 C        0.148994563     7.242137021     2.738836673
 C       -5.508336912    12.517070805    -1.144250829
 C       -4.227947607    13.027785567     1.629303260
 C       -0.608833941    -0.929225645    -1.545127732
 C       -0.656971415    -0.893416661     1.547139757
 H        1.218726740     2.708249461    -0.427873017
 H        0.284554466     4.949234580    -0.421626640
 H       -3.631416020     3.362119433     0.399793927
 H       -2.734598036     1.101491795     0.426974858
 H       -3.409232835     5.682760734     0.186961584
 H       -0.563089792     6.756021764    -0.393579919
 H       -4.255456363     7.546955246     0.190408739
 H       -5.143291980     9.806330883     0.180230847
 H       -1.124065125    11.340610925    -0.492395013
 H       -0.297555733     9.049750560    -0.574817836
 H       -2.820443694    14.715277851    -0.447052338
 H       -1.693010685    12.447891154    -2.275036534
 H        0.019017280    13.002513016    -3.706972406
 H        1.605429581    14.625025734    -4.687591113
 H        0.034635618    17.699344758    -2.098878449
 H       -1.578137827    16.100327370    -1.174623635
 H        2.295184752    19.138968489    -4.586258869
 H        1.678328341    18.977168035    -2.916339587
 H        0.576033989    18.779450414    -4.312606269
 H        5.514733518    15.083948613    -2.715014167
 H        5.503304047    13.554240542    -1.816328571
 H        5.823868368    15.083117848    -0.950181025
 H        4.418468773    14.718764397     1.082977618
 H        3.566968539    13.119531199     2.758519818
 H        1.248835704    11.153446178    -0.294600525
 H        2.079540913    12.789655339    -1.970527617
 H        2.318572669    11.320090482     3.379594330
 H        0.610642295     9.881256551     1.198773928
 H        3.439740946     8.871801898     3.429180465
 H        5.146859592     8.624239659     5.146417161
 H        2.111214526     8.327750973     8.182673290
 H        0.374703131     8.582803867     6.506677469
 H        5.836813645     8.336292505     7.356564672
 H        3.623273154     8.134646676     9.511261438
 H        7.349870323     8.139704339     8.687249608
 H        9.085620808     7.895215107    10.367374317
 H        6.015733811     7.589555017    13.436850216
 H        4.311700003     7.850323189    11.721554157
 H        3.416355571    15.696504309    -3.953262824
 H        3.914174552    17.313265274    -4.531898640
 H        4.890674742    17.196777497    -2.372812678
 H        3.440899295    18.146616123    -2.066442254
 H        3.674897725    16.482224479    -0.290553988
 H        2.212362261    16.107422652    -1.249793822
 H        2.262687396    -1.029571616     0.051072289
 H        2.262264310     0.551686446     0.871746972
 H        2.274859701     0.469210133    -0.911660412
 H       11.438597213     7.084348618    13.385256732
 H       11.003997989     8.080962261    11.973974908
 H       10.673144332     6.326971662    11.965992959
 H        9.918962113     8.954889579    15.126983219
 C        9.382981938    10.367538424    13.565316768
 C        7.790369849     9.374905255    15.219154428
 H        7.497938408     6.350999211    14.907981861
 C        8.323445048     4.762876579    13.682630025
 C        9.478438605     5.837764130    15.630470697
 H       -1.381973916     8.905079173     5.132771444
 C       -1.024241944    11.020429866     4.789773159
 C       -2.334010541     9.497954983     3.280810825
 H       -0.641431608     7.421803459     1.950765266
 C        1.393196029     6.655669415     2.049438940
 C       -0.404432129     6.208367134     3.733338931
 H       -6.226687938    11.851876722    -0.583666665
 C       -6.133591564    13.920023312    -1.237128966
 C       -5.341343563    11.948255210    -2.564687904
 H       -4.726957710    14.037119987     1.553771462
 C       -5.177972072    12.082889157     2.384482159
 C       -2.932807127    13.195636307     2.442671179
 H       -0.100566708    -1.936344167    -1.513093872
 C       -2.129563263    -1.165317021    -1.568077082
 C       -0.199216513    -0.229088735    -2.853878787
 H       -1.781631912    -0.892825883     1.449944445
 C       -0.193806902    -2.357031601     1.654130928
 C       -0.297016307    -0.155829343     2.849593263
 H       10.329125660    10.297995740    13.013374859
 H        9.473714046    11.245528784    14.220847406
 H        8.591702964    10.605926227    12.839949535
 H        7.534981765     8.555938228    15.903339737
 H        6.913573365     9.573147148    14.586736215
 H        7.922201798    10.268374758    15.846871419
 H        7.591385351     4.840624253    12.865950367
 H        7.954800538     3.971302637    14.350466149
 H        9.261927159     4.390687789    13.250972596
 H        9.600652204     6.712905681    16.281711227
 H       10.477010678     5.528926385    15.294077132
 H        9.106702874     5.026294429    16.272990885
 H       -0.260228177    11.128064547     5.572139852
 H       -1.973518945    11.343198852     5.239592576
 H       -0.791429265    11.750331776     4.000221021
 H       -2.576482887     8.469795663     2.979129999
 H       -2.179001118    10.076496096     2.356780761
 H       -3.242581718     9.902187419     3.748574523
 H        1.800482907     7.300438243     1.260221350
 H        1.139189412     5.696564721     1.573622710
 H        2.207549890     6.436569653     2.754715842
 H       -1.350092730     6.514628996     4.198343368
 H        0.303005854     5.963486684     4.537253556
 H       -0.615434225     5.262781328     3.210469290
 H       -6.352679577    14.366469656    -0.258971269
 H       -7.093054900    13.868879849    -1.771911417
 H       -5.508360918    14.629549481    -1.797714139
 H       -4.961731513    10.917028763    -2.578893873
 H       -4.674216745    12.555454956    -3.193441427
 H       -6.312328754    11.924958331    -3.079163363
 H       -6.163759982    11.987109216     1.912460112
 H       -5.359920719    12.465739957     3.399237911
 H       -4.765586102    11.071216656     2.509202149
 H       -2.216233512    13.895441367     1.990289557
 H       -2.402808694    12.243565366     2.603382524
 H       -3.161835507    13.591529635     3.441708383
 H       -2.496256901    -1.731586598    -0.702628266
 H       -2.404283531    -1.752697900    -2.456490044
 H       -2.705593753    -0.231484110    -1.630273668
 H        0.885370864    -0.095627855    -2.956973153
 H       -0.668732462     0.757676940    -2.975358295
 H       -0.517900911    -0.829427250    -3.718110621
 H       -0.476548234    -2.967456714     0.786832427
 H       -0.657791193    -2.834257328     2.529676490
 H        0.891351011    -2.453813740     1.791931852
 H       -0.649088419     0.885561799     2.870304210
 H        0.782169502    -0.144277113     3.052738788
 H       -0.767531999    -0.655876239     3.708159958

