187   

Si        0.000000000     0.000000000     0.000000000
 C        1.865118242     0.000000000     0.000000000
 C       -0.684902142     1.708301890     0.000000000
 C        0.099521419     2.801389519    -0.381448147
 C       -0.431226766     4.091393861    -0.377220112
 C       -1.756637329     4.317393545     0.002890537
 C       -2.542792545     3.220198891     0.379963800
 C       -2.016246749     1.931725951     0.376562655
 C       -2.356251887     5.647238660     0.023402070
 C       -1.719794729     6.782159726    -0.312530280
 C       -2.326686885     8.109098219    -0.289419940
 C       -1.551552273     9.213644111    -0.664293049
 C       -2.090319320    10.498499425    -0.656961382
 C       -3.415201983    10.710550188    -0.260788579
 C       -4.190965158     9.607436779     0.117000871
 C       -3.652976856     8.322304365     0.098589515
Si       -4.173503067    12.387639464    -0.233623218
 C       -5.203872627    12.601473832     1.266275447
 C       -4.915706361    11.964115540     2.409069640
 C       -5.674673146    12.069412056     3.655125676
 C       -5.223666175    11.325241865     4.758384733
 C       -5.888831816    11.373560116     5.969363456
 C       -7.020532188    12.202606799     6.124766384
 C       -7.479936290    12.940371582     5.024036758
 C       -6.822839700    12.850284043     3.798825447
 N       -7.644710498    12.195283958     7.395452301
 C       -6.776062027    12.571767317     8.529837328
 C       -9.012441141    12.725214746     7.458796108
 C       -6.932524456    14.003457734     9.078261683
 C       -6.616310180    15.087190055     8.038199354
 N       -5.178248794    15.076362179     7.653550497
 C       -5.045367103    15.743592686     6.377117970
 C       -4.785578935    14.927000437     5.272180207
 C       -4.645133403    15.495306456     4.012843625
 C       -4.751374577    16.882306490     3.839456091
 C       -5.008441764    17.689227186     4.952451069
 C       -5.157500966    17.128755452     6.216061826
 C       -4.306645796    15.673708394     8.684938358
 C       -4.595767393    17.435336352     2.491658718
 C       -4.675346997    18.739702050     2.197278330
Si       -4.479586353    19.422055827     0.509983757
 C       -5.044964093    18.199913061    -0.743736535
 C       -6.115341882    17.351565294    -0.425542033
 C       -6.570958624    16.414827511    -1.347440388
 C       -5.991447753    16.324026211    -2.620239587
 C       -4.935046091    17.180470914    -2.940725825
 C       -4.464590979    18.109505944    -2.011885208
 C       -6.507971137    15.324171429    -3.546935974
 C       -6.042536445    15.110968215    -4.789134692
 C       -6.573225506    14.104479331    -5.702490743
 C       -7.631570630    13.260136223    -5.355915265
 C       -8.110682023    12.310380223    -6.257105913
 C       -7.537861835    12.183084332    -7.526563047
 C       -6.473918338    13.025914037    -7.875067392
 C       -5.996909946    13.972531338    -6.972440942
Si       -8.161294862    10.933041831    -8.725595907
 C       -9.828607996    10.268450323    -8.218577984
 C       -8.269094929    11.742550467   -10.444326480
 C       -6.923824899     9.488818522    -8.807983757
 C       -5.536384679    20.994554885     0.361376567
 C       -2.655091342    19.875925625     0.229463104
 C       -2.807346200    13.712966051    -0.214603390
 C       -5.230768027    12.635190966    -1.788993275
 C       -0.619402295    -0.918450879    -1.548047617
 C       -0.649528130    -0.912929320     1.539672894
 H        1.143015990     2.687084728    -0.687307103
 H        0.200842747     4.925778692    -0.675533028
 H       -3.578050020     3.374175564     0.678728915
 H       -2.678148877     1.115547374     0.679373855
 H       -3.402757432     5.670887362     0.342255431
 H       -0.674148759     6.761401270    -0.632231676
 H       -0.516945803     9.069962724    -0.968845418
 H       -1.438896470    11.320176330    -0.966362229
 H       -5.232837416     9.713939038     0.437940540
 H       -4.277663793     7.481377234     0.393930017
 H       -6.055506559    13.288785755     1.180787604
 H       -4.057707532    11.278514083     2.497724830
 H       -4.339851836    10.693854331     4.658717849
 H       -5.545097244    10.772311421     6.808021507
 H       -8.344510909    13.588963482     5.116634032
 H       -7.201303390    13.422511091     2.951408446
 H       -9.442939642    12.484590278     8.446302943
 H       -9.631709384    12.213455617     6.699792412
 H       -9.092001673    13.811729705     7.298525462
 H       -4.298690179    15.007278133     9.563431009
 H       -4.601036056    16.681729838     9.010723141
 H       -3.273797799    15.719468560     8.297764358
 H       -4.697997535    13.846743567     5.413719587
 H       -4.452457497    14.846742248     3.154666207
 H       -5.095251323    18.768417032     4.836406185
 H       -5.359666063    17.764354012     7.073016911
 H       -4.406545946    16.662491017     1.729792028
 H       -4.852001269    19.493525160     2.979416988
 H       -6.616166907    17.388091597     0.548641828
 H       -7.390655492    15.751190040    -1.076838559
 H       -4.469230733    17.129097298    -3.922764387
 H       -3.634479333    18.751863680    -2.316981755
 H       -7.340151664    14.728143177    -3.157337526
 H       -5.214134304    15.703584723    -5.186260830
 H       -8.097132694    13.341071107    -4.375042539
 H       -8.942753975    11.680306184    -5.930409508
 H       -5.987640577    12.971126407    -8.853127358
 H       -5.169079023    14.617515079    -7.260685321
 H       -6.997068446    11.843365564     9.344921360
 H       -5.706027556    12.427428888     8.243616227
 H       -7.958460801    14.158263232     9.460524563
 H       -6.264735502    14.114331542     9.954881328
 H       -7.214424338    14.893638872     7.115767172
 H       -6.937640253    16.079401270     8.422560755
 H        2.262663863    -1.029183542     0.053939939
 H        2.260281946     0.554975686     0.870391842
 H        2.275705334     0.467774666    -0.911831477
 H      -10.217180195     9.555906323    -8.968048362
 H      -10.568058089    11.084023190    -8.122118082
 H       -9.781783149     9.739199736    -7.250647951
 H       -7.219860081    12.072569825   -10.698547907
 C       -8.738935691    10.778168820   -11.547872005
 C       -9.169773505    12.991054201   -10.452210075
 H       -7.389129616     8.726384140    -9.497065939
 C       -5.554607412     9.884431260    -9.389147656
 C       -6.703683748     8.823825376    -7.436898587
 H       -5.147134558    21.708996078     1.143122493
 C       -5.414363461    21.676113699    -1.012565477
 C       -7.023343250    20.727666141     0.656955874
 H       -2.604581707    20.349732572    -0.793333424
 C       -2.124874385    20.896142618     1.252805069
 C       -1.733132174    18.643401826     0.231821395
 H       -2.129176784    13.470814045    -1.083068077
 C       -3.341790875    15.137291369    -0.418781657
 C       -1.970333305    13.673903881     1.076965316
 H       -5.592151271    13.705625781    -1.745735842
 C       -4.430280938    12.455673506    -3.090297296
 C       -6.463405286    11.715201093    -1.831578660
 H       -0.133747791    -1.936215083    -1.515350234
 C       -2.145420348    -1.118515678    -1.571509890
 C       -0.192263518    -0.226999259    -2.855729591
 H       -1.774113252    -0.923829897     1.442337985
 C       -0.172475478    -2.373218111     1.634372276
 C       -0.297036810    -0.184209473     2.849078357
 H       -8.101819292     9.890041493   -11.649696267
 H       -8.716906074    11.285149657   -12.523592934
 H       -9.771867042    10.434112618   -11.404874741
 H       -8.859221913    13.754786044    -9.724924489
 H      -10.225676705    12.760095797   -10.258474105
 H       -9.135240882    13.474729763   -11.438856883
 H       -5.613231475    10.290991305   -10.406530145
 H       -4.903830370     8.999693177    -9.450365284
 H       -5.020036543    10.613327003    -8.763565868
 H       -7.626370080     8.437138250    -6.985553078
 H       -6.231395795     9.496558177    -6.705898072
 H       -6.029109544     7.961550442    -7.540556052
 H       -4.390382585    21.986815655    -1.256231373
 H       -6.025096972    22.590492327    -1.034429643
 H       -5.778396990    21.046686825    -1.837219860
 H       -7.200020640    20.290913768     1.649326049
 H       -7.494574893    20.067561877    -0.085437380
 H       -7.588276966    21.670341073     0.630427554
 H       -2.689336347    21.837087087     1.265791094
 H       -1.086929123    21.166662716     1.010280843
 H       -2.106304449    20.501332466     2.278565465
 H       -1.992347445    17.905557662    -0.540304432
 H       -1.718284868    18.120994757     1.199732623
 H       -0.696054089    18.946926445     0.030627122
 H       -3.805865921    15.291334665    -1.403942374
 H       -2.519112216    15.864037710    -0.354873815
 H       -4.080023823    15.438722154     0.338129201
 H       -1.515384605    12.694210151     1.274794389
 H       -2.549464306    13.954411658     1.969122855
 H       -1.140113749    14.390863034     1.010234995
 H       -3.573370902    13.135857273    -3.174195198
 H       -5.073670764    12.672735959    -3.958656569
 H       -4.061943110    11.430539017    -3.231190418
 H       -7.130159526    11.839675314    -0.968737438
 H       -6.198370171    10.650517777    -1.899176188
 H       -7.063575760    11.934548580    -2.726747281
 H       -2.522590955    -1.693095357    -0.716112612
 H       -2.436584052    -1.681138571    -2.470446641
 H       -2.699886252    -0.170134091    -1.611905054
 H        0.895083617    -0.117304528    -2.956597807
 H       -0.640511347     0.769725851    -2.977384435
 H       -0.522447782    -0.819909355    -3.720675370
 H       -0.448881651    -2.978499153     0.761458642
 H       -0.632757462    -2.862367243     2.505181082
 H        0.913341161    -2.461017944     1.772125480
 H       -0.657353039     0.854190469     2.878261760
 H        0.781817073    -0.165211352     3.052790030
 H       -0.764072296    -0.695403481     3.702876077

