187   

Si        0.000000000     0.000000000     0.000000000
 C        1.865497469     0.000000000     0.000000000
 C       -0.685218147     1.708134815     0.000000000
 C        0.133756898     2.819251841    -0.222708372
 C       -0.401623239     4.107480103    -0.219431673
 C       -1.765731424     4.313716883     0.000760630
 C       -2.585811043     3.198640143     0.221244051
 C       -2.054275649     1.912359742     0.221194970
 C       -2.371008295     5.641194251     0.013344708
 C       -1.702651253     6.790812556    -0.180671596
 C       -2.311960919     8.116792478    -0.167291435
 C       -3.678184358     8.314498381     0.053851840
 C       -4.220312812     9.598742637     0.058562477
 C       -3.402435101    10.715366542    -0.145736147
 C       -2.033299259    10.521514217    -0.366196450
 C       -1.497273223     9.236106463    -0.381255181
Si       -4.111420549    12.412534812    -0.140715758
 C       -2.795584232    13.634051414     0.200480662
 C       -2.547610623    14.739818099    -0.513364595
 C       -1.480396510    15.693697563    -0.203898361
 C       -1.318242154    16.818150122    -1.027406467
 C       -0.324244689    17.749688683    -0.777475949
 C        0.578245887    17.557939201     0.289611855
 C        0.420274890    16.431493533     1.113712105
 C       -0.608796188    15.527914598     0.874911120
 N        1.578350743    18.534042624     0.509625389
 C        2.345051204    18.926746274    -0.691947938
 C        2.434872092    18.333301131     1.690972158
 C        2.947876848    17.730009154    -1.451026714
 C        4.211985997    18.087374426    -2.250232551
 N        5.372765698    18.557271594    -1.457233516
 C        5.513643210    17.961479692    -0.183240244
 C        5.540505022    16.552130590    -0.112465296
 C        5.676593872    15.918464413     1.110500568
 C        5.817481434    16.657348761     2.295579297
 C        5.820396003    18.051346693     2.217057534
 C        5.687198417    18.703132851     0.995745850
 C        5.577047916    20.013167540    -1.527809650
 C        5.958136941    15.938020985     3.563323569
 C        6.098322828    16.541802624     4.750132745
Si        6.278238806    15.708961543     6.366667863
 C        5.072711499    16.450280257     7.541768001
 C        3.880449350    16.995594949     7.051784986
 C        2.952281464    17.562603969     7.923524866
 C        3.188101037    17.586562279     9.301145358
 C        4.379283558    17.032913370     9.788743190
 C        5.311423469    16.469376484     8.920641207
 C        2.244142499    18.169664683    10.249075052
 C        1.070710246    18.730416701     9.910653604
 C        0.124260098    19.314422850    10.855212598
 C        0.355246023    19.345874415    12.232801771
 C       -0.578078941    19.914765563    13.099411611
 C       -1.768360811    20.458148251    12.606193824
 C       -2.002971434    20.426380005    11.224794785
 C       -1.066931807    19.863786783    10.361727887
Si       -3.010517113    21.212616071    13.736163783
 C       -2.652435382    20.804240566    15.520762307
 C       -2.992428206    23.104443236    13.526595092
 C       -4.731811976    20.564594716    13.245513467
 C        5.941783979    13.843163790     6.229385641
 C        8.054225011    15.968026047     6.995095834
 C       -4.938894282    12.741710340    -1.821124720
 C       -5.428726412    12.549126384     1.225842337
 C       -0.601874889    -0.928827868    -1.548833870
 C       -0.657812110    -0.901922008     1.542020556
 H        1.207918918     2.720806585    -0.401913636
 H        0.258050396     4.955896688    -0.392088541
 H       -3.651296189     3.337247304     0.394605826
 H       -2.742772897     1.081734750     0.400997100
 H       -3.449404196     5.649649338     0.197877871
 H       -0.624555810     6.783973213    -0.365502828
 H       -4.332972425     7.461785045     0.222780007
 H       -5.296020770     9.690739913     0.232038140
 H       -1.348888888    11.359755392    -0.533138911
 H       -0.431748471     9.103190399    -0.558406894
 H       -2.195405676    13.387713594     1.092645750
 H       -3.130858728    15.017711820    -1.400898038
 H       -1.992484032    16.971449384    -1.869942932
 H       -0.239978228    18.632792455    -1.404884451
 H        1.099017141    16.248301283     1.942008613
 H       -0.719619886    14.667511876     1.536785398
 H        3.076149045    19.221216036     1.830742276
 H        3.094692892    17.450954451     1.624435315
 H        1.803727358    18.247561222     2.592969039
 H        5.631391221    20.315723265    -2.588566635
 H        6.554098557    20.266611407    -1.077432847
 H        4.793978469    20.609605745    -1.034375322
 H        5.459778176    15.967399824    -1.026013573
 H        5.684878723    14.828556714     1.149288601
 H        5.937294138    18.648345191     3.123318494
 H        5.698871729    19.788209486     0.973829493
 H        5.937551212    14.846779370     3.447841876
 H        6.124144923    17.642226728     4.828618845
 H        3.639480230    17.000950779     5.983231338
 H        2.034714132    17.986432921     7.518962112
 H        4.581076350    17.040901072    10.858131364
 H        6.223062471    16.052685021     9.356973137
 H        2.558220569    18.123094052    11.295734044
 H        0.757349107    18.776020461     8.863266836
 H        1.271406782    18.924991652    12.642836740
 H       -0.340849533    19.911409878    14.166877016
 H       -2.916070214    20.834738957    10.782241567
 H       -1.266465189    19.849517114     9.291758998
 H        1.668050964    19.507312723    -1.357313104
 H        3.142198638    19.634360040    -0.374556078
 H        3.169846990    16.910770045    -0.736318459
 H        2.189717389    17.302569106    -2.136079567
 H        4.559293512    17.180398013    -2.803333666
 H        3.966019026    18.844730775    -3.025392219
 H        2.262753643    -1.030026840     0.039576523
 H        2.262687708     0.542365848     0.877157220
 H        2.274082316     0.479524017    -0.906745552
 H       -3.427737426    21.221681960    16.187830850
 H       -1.679266686    21.211766391    15.846233756
 H       -2.631213073    19.710937744    15.680819578
 H       -3.724343362    23.502224697    14.287710719
 C       -1.611892799    23.717286395    13.825856549
 C       -3.449675169    23.576663931    12.134885288
 H       -4.891675028    20.890550927    12.176569152
 C       -4.815743651    19.027972394    13.286122132
 C       -5.874207061    21.152074484    14.093024676
 H        6.637458761    13.459454175     5.427989097
 C        6.242035323    13.075784525     7.529201812
 C        4.495884658    13.537135225     5.797187298
 H        8.113659689    15.433643139     7.987311582
 C        9.116729191    15.359580336     6.063030658
 C        8.385752929    17.452084069     7.232774202
 H       -5.262528303    13.822619722    -1.800936477
 C       -3.966958521    12.552589249    -3.000309218
 C       -6.187519175    11.876237844    -2.067308370
 H       -6.233573187    11.805208237     0.957823086
 C       -4.878975028    12.174938360     2.613831273
 C       -6.074310782    13.943794547     1.300216871
 H       -0.089922345    -1.934104671    -1.517012122
 C       -2.121509379    -1.170631482    -1.577965590
 C       -0.190243919    -0.224663385    -2.854865247
 H       -1.782438168    -0.900420888     1.444217247
 C       -0.195000149    -2.366265461     1.641287077
 C       -0.298352199    -0.172216424     2.849014498
 H       -1.244340773    23.493943723    14.835645056
 H       -1.662473944    24.813172040    13.753012164
 H       -0.839069307    23.397137455    13.112203697
 H       -4.463481514    23.247678860    11.873923446
 H       -2.772450092    23.254977209    11.331196981
 H       -3.465955104    24.675803252    12.098495762
 H       -4.063222972    18.535811157    12.653321544
 H       -5.794865353    18.693829587    12.914365376
 H       -4.714072453    18.618570196    14.299870727
 H       -5.923132660    22.248062127    14.057313919
 H       -5.821717593    20.853722045    15.148451935
 H       -6.842958850    20.789273149    13.719608316
 H        7.287616163    13.157872400     7.852404323
 H        6.050034604    12.002493330     7.384639501
 H        5.604985066    13.388749559     8.368645746
 H        4.208369341    14.013601742     4.850082052
 H        3.754321652    13.834542691     6.553018621
 H        4.367144727    12.455386954     5.650768364
 H        8.999229952    14.278349967     5.915202836
 H       10.119356541    15.503808961     6.490768604
 H        9.136203984    15.830989427     5.069918756
 H        7.687476690    17.951047383     7.919445003
 H        8.413438396    18.038155674     6.303836775
 H        9.382606768    17.547470092     7.686551942
 H       -3.059761662    13.167622470    -2.925811099
 H       -4.456313427    12.836266738    -3.942510973
 H       -3.645454534    11.508106239    -3.122831586
 H       -6.977880708    12.029137530    -1.321468908
 H       -5.962957533    10.800913932    -2.104800583
 H       -6.633046686    12.128258510    -3.040685843
 H       -4.436003857    11.169724754     2.650903017
 H       -5.691382809    12.179323001     3.354394013
 H       -4.124299143    12.884377396     2.980703807
 H       -6.565622874    14.247112743     0.366841251
 H       -5.357621787    14.733004884     1.570285226
 H       -6.853083925    13.957775671     2.076030950
 H       -2.490567628    -1.735409039    -0.712633433
 H       -2.390095736    -1.761357943    -2.465974745
 H       -2.700168628    -0.238675358    -1.645539078
 H        0.894184606    -0.087378811    -2.954138865
 H       -0.662495193     0.761038929    -2.975297659
 H       -0.504331476    -0.823857656    -3.721451794
 H       -0.478491390    -2.972144558     0.771035287
 H       -0.658675070    -2.847766727     2.514634233
 H        0.890136713    -2.464244275     1.777801862
 H       -0.646890460     0.870337994     2.873476900
 H        0.780181077    -0.165236937     3.054729382
 H       -0.773236169    -0.674194866     3.704026288

