187   

Si        0.000000000     0.000000000     0.000000000
 C        1.865341661     0.000000000     0.000000000
 C       -0.678079034     1.711313896     0.000000000
 C        0.137812162     2.811784644    -0.280687829
 C       -0.387711711     4.103787358    -0.277640958
 C       -1.739476802     4.324778747    -0.001813994
 C       -2.556661676     3.220630309     0.275617145
 C       -2.034509665     1.930230658     0.276832352
 C       -2.332801792     5.657769481     0.012484480
 C       -1.662348096     6.796373811    -0.232146090
 C       -2.255864981     8.129335399    -0.217803232
 C       -1.437832902     9.233730279    -0.491676107
 C       -1.959530475    10.524722943    -0.489376775
 C       -3.317782449    10.739744062    -0.224657078
 C       -4.137213393     9.639214154     0.047662147
 C       -3.608845671     8.348828082     0.055146936
Si       -4.018491358    12.440467598    -0.218834275
 C       -5.824205147    12.365219306    -0.489798409
 C       -6.756677088    12.975249828     0.253213633
 C       -8.195560928    12.886817902    -0.001443569
 C       -9.078466498    13.570857043     0.846898769
 C      -10.448277495    13.519700968     0.649410907
 C      -10.992089340    12.733341837    -0.389931313
 C      -10.106870683    12.045740392    -1.241387667
 C       -8.733536411    12.144641125    -1.055664558
 N      -12.384008958    12.693054571    -0.575936977
 C      -13.233721105    12.787818997     0.624646004
 C      -12.897566979    11.778924179    -1.606297341
 C      -12.952553979    11.736391221     1.711640554
 C      -13.604637864    10.369319433     1.443673239
 N      -15.027277278    10.267578839     1.814504654
 C      -15.375405208    10.571508740     3.141162586
 C      -14.472352966    10.277304315     4.186444519
 C      -14.799990855    10.570461838     5.499624691
 C      -16.047164800    11.119407474     5.832128752
 C      -16.951250300    11.381202477     4.799968210
 C      -16.633123729    11.108598857     3.475252178
 C      -15.956362939    10.700290949     0.760571521
 C      -16.339239466    11.409150430     7.236551160
 C      -17.492289382    11.932552991     7.674700498
Si      -17.851415570    12.292411770     9.431160380
 C      -16.966558285    11.140992481    10.560403581
 C      -16.747191313     9.814729318    10.164742218
 C      -16.079530768     8.928690256    11.005606567
 C      -15.626112505     9.339986884    12.266069675
 C      -15.853952326    10.660889865    12.661475517
 C      -16.518770447    11.552201074    11.819755333
 C      -14.931514401     8.374114109    13.110856958
 C      -14.443958797     8.638351679    14.334903211
 C      -13.749482665     7.671416758    15.178717145
 C      -13.522220521     6.351011479    14.782404045
 C      -12.853594999     5.459496701    15.621216351
 C      -12.402829407     5.868946366    16.880058161
 C      -12.630166724     7.192749209    17.280316279
 C      -13.292674842     8.081713095    16.438527920
Si      -11.518899403     4.704015472    17.998350443
 C      -11.702766938     2.936541731    17.431126441
 C       -9.668157821     5.146741355    18.038117865
 C      -12.225908288     4.907073825    19.754147593
 C      -17.355598373    14.091134028     9.803404188
 C      -19.723434087    12.104093333     9.712327854
 C       -3.600759355    13.277094267     1.436888084
 C       -3.240197036    13.455017904    -1.628475006
 C       -0.611404807    -0.923306492    -1.548269860
 C       -0.657687887    -0.903966383     1.540748746
 H        1.202487372     2.702042875    -0.504635365
 H        0.269589409     4.943548909    -0.495674768
 H       -3.612427322     3.370570003     0.493578658
 H       -2.720041487     1.108476615     0.502386048
 H       -3.401719088     5.680137508     0.244233876
 H       -0.593455831     6.774024008    -0.463716924
 H       -0.381650615     9.084052009    -0.706766617
 H       -1.273178837    11.348035792    -0.705144602
 H       -5.205071210     9.750099392     0.263363573
 H       -4.264950674     7.508469830     0.274184478
 H       -6.105219758    11.756373119    -1.365470161
 H       -6.510274171    13.594867506     1.125464527
 H       -8.682300390    14.164771740     1.671598942
 H      -11.102292521    14.090918027     1.302480507
 H      -10.479753199    11.435174678    -2.056742655
 H       -8.069656194    11.614597837    -1.741017889
 H      -13.996741700    11.847076477    -1.658983787
 H      -12.618132848    10.724977068    -1.443801287
 H      -12.512144807    12.097920529    -2.593439507
 H      -15.570508663    10.406765951    -0.229602550
 H      -16.146644825    11.786119089     0.755911968
 H      -16.920542600    10.173841695     0.894240269
 H      -13.511038879     9.821318374     3.966700930
 H      -14.078270640    10.355060417     6.289376671
 H      -17.929296429    11.806486508     5.030121778
 H      -17.366470481    11.328530480     2.707088437
 H      -15.512836659    11.144932340     7.912309153
 H      -18.301467064    12.195937357     6.977389790
 H      -17.083275709     9.436541933     9.193084300
 H      -15.912020882     7.904240415    10.678239450
 H      -15.512758096    11.005884705    13.635620765
 H      -16.667829362    12.571925347    12.184876124
 H      -14.824723797     7.377260366    12.672866604
 H      -14.550745139     9.634716117    14.773527488
 H      -13.866538702     6.005891726    13.809218624
 H      -12.704587304     4.439790427    15.255484462
 H      -12.301018492     7.568787259    18.253185545
 H      -13.458233589     9.106219125    16.766352969
 H      -13.093647573    13.810958131     1.050821177
 H      -14.299485582    12.747346752     0.310629212
 H      -11.857091789    11.600677899     1.824872470
 H      -13.294760522    12.127077756     2.692289685
 H      -13.494986934    10.089047631     0.373296625
 H      -13.056219787     9.577377429     2.009665516
 H        2.262947671    -1.029953907     0.038479601
 H        2.261538591     0.541463950     0.878287112
 H        2.274975310     0.480696398    -0.905597617
 H      -11.201690019     2.240638154    18.127529911
 H      -11.263113726     2.779258967    16.430675113
 H      -12.767941795     2.645957968    17.381183886
 H       -9.183876739     4.372862724    18.701410345
 C       -9.010689682     5.063205459    16.648400157
 C       -9.379245707     6.534703085    18.637730569
 H      -12.027354128     5.979454278    20.045610964
 C      -13.747392934     4.678831074    19.806594993
 C      -11.546807269     4.002447415    20.797871490
 H      -17.640006199    14.278756141    10.878938531
 C      -15.840142322    14.320043708     9.660788356
 C      -18.099495826    15.118002354     8.930813056
 H      -20.219647058    12.834273899     9.010083390
 C      -20.225475663    10.690958831     9.365509356
 C      -20.156755475    12.450621488    11.147418774
 H       -4.128161326    14.274698161     1.422285591
 C       -4.117309451    12.476841315     2.646499566
 C       -2.095465615    13.538708726     1.624705176
 H       -2.134716625    13.499068038    -1.406993062
 C       -3.422535523    12.788813498    -3.003880468
 C       -3.770503406    14.897918545    -1.694750302
 H       -0.116737654    -1.936907962    -1.513289859
 C       -2.135214975    -1.138390554    -1.577118613
 C       -0.186603059    -0.229693587    -2.855652391
 H       -1.782155537    -0.907430320     1.440538095
 C       -0.189330815    -2.366531701     1.641518382
 C       -0.304537902    -0.172695935     2.848647929
 H       -9.096266613     4.072411504    16.184045314
 H       -7.934308616     5.273093276    16.727645454
 H       -9.415876548     5.799333870    15.939219896
 H       -9.735075908     6.646019470    19.669733276
 H       -9.806196019     7.354082814    18.042359026
 H       -8.294207245     6.712218247    18.667135185
 H      -14.307985596     5.329774425    19.120412225
 H      -14.126976221     4.896826001    20.815015254
 H      -14.033603205     3.641925932    19.586087416
 H      -10.463144356     4.160911328    20.871322058
 H      -11.717030391     2.933404640    20.613865385
 H      -11.956025570     4.210647328    21.797252399
 H      -15.236373281    13.661000137    10.300110638
 H      -15.584352055    15.348926852     9.950136618
 H      -15.484884400    14.192412897     8.627868874
 H      -19.190728057    15.071417067     9.037100563
 H      -17.861583914    15.022428544     7.862163430
 H      -17.806967131    16.137825246     9.219885741
 H      -20.004998113    10.390867182     8.331971772
 H      -21.318116542    10.641580330     9.474704952
 H      -19.815591734     9.916935021    10.030441074
 H      -19.915261739    13.480588468    11.439230088
 H      -19.720538234    11.778283129    11.900233705
 H      -21.247592717    12.351854925    11.245210853
 H       -5.198000287    12.282180640     2.616428029
 H       -3.929004033    13.033073981     3.575540679
 H       -3.612940934    11.506362882     2.761379402
 H       -1.667599682    14.193487317     0.855028837
 H       -1.500306450    12.614954460     1.650623976
 H       -1.919135774    14.041718106     2.586724745
 H       -3.030092477    11.763027793    -3.046774311
 H       -2.879713191    13.357033093    -3.772602389
 H       -4.471771829    12.756990809    -3.328114836
 H       -3.594090224    15.469339602    -0.774385458
 H       -4.846217101    14.948809761    -1.916795300
 H       -3.264197369    15.448462366    -2.500467501
 H       -2.510576847    -1.711513987    -0.719969526
 H       -2.416441950    -1.709525010    -2.473965705
 H       -2.698664977    -0.195996779    -1.626865968
 H        0.900020225    -0.109943459    -2.953360427
 H       -0.643366654     0.762743345    -2.980034603
 H       -0.508545929    -0.826880738    -3.720785988
 H       -0.467181220    -2.973406429     0.770180584
 H       -0.654328498    -2.849910761     2.513105425
 H        0.895698881    -2.459928329     1.782032730
 H       -0.658501270     0.867979442     2.872940206
 H        0.773658702    -0.160091247     3.056028020
 H       -0.778060399    -0.677795746     3.702568120

