187   

Si        0.000000000     0.000000000     0.000000000
 C        1.865152939     0.000000000     0.000000000
 C       -0.680386338     1.710624865     0.000000000
 C        0.107404124     2.798440414     0.390083878
 C       -0.416556697     4.091098017     0.386946046
 C       -1.739219753     4.324787040     0.001577903
 C       -2.528821873     3.233117767    -0.383587695
 C       -2.008370675     1.941986891    -0.383027658
 C       -2.330487179     5.658646095    -0.017518446
 C       -1.686231375     6.787191088     0.324981583
 C       -2.279422161     8.120276717     0.305186145
 C       -3.603378998     8.349226495    -0.081177909
 C       -4.131014960     9.639495589    -0.085765015
 C       -3.340115037    10.730972141     0.289789237
 C       -2.013775929    10.505964506     0.677649921
 C       -1.492778499     9.214304450     0.688366830
Si       -4.034470302    12.433023906     0.284251243
 C       -2.681003530    13.662255026     0.257406164
 C       -2.559414514    14.712723761     1.078754880
 C       -1.454993025    15.673397638     1.019718728
 C       -1.435669594    16.736932437     1.935935408
 C       -0.413697723    17.671532219     1.921304678
 C        0.610863593    17.584239587     0.957460384
 C        0.598353101    16.521330913     0.043746908
 C       -0.414998656    15.569321882     0.093855462
 N        1.630505299    18.574609107     0.996519259
 C        1.136345950    19.946970240     0.738144516
 C        2.848772339    18.264139050     0.227327073
 C        0.417160175    20.123601220    -0.611434015
 C       -1.116081501    20.040992741    -0.461977978
 N       -1.807097329    19.597665458    -1.687136022
 C       -1.548893139    20.347731102    -2.851498310
 C       -1.475088836    21.754782408    -2.759777704
 C       -1.222743796    22.518049964    -3.886960400
 C       -1.080243517    21.922579516    -5.149327768
 C       -1.184032271    20.532816110    -5.242266816
 C       -1.422307524    19.750507825    -4.118584498
 C       -1.832894975    18.132897170    -1.830063348
 C       -0.814236259    22.778456394    -6.306269109
 C       -0.659284646    22.328092265    -7.558746308
Si       -0.327060133    23.403735860    -8.999592460
 C       -1.068035995    25.074241459    -8.788482176
 C       -2.279504591    25.211160220    -8.100380825
 C       -2.858677298    26.467131172    -7.928792475
 C       -2.249173437    27.612015128    -8.450364948
 C       -1.041321520    27.471671974    -9.145785116
 C       -0.457594582    26.218318104    -9.315450352
 C       -2.819801382    28.945964169    -8.294649799
 C       -3.968765642    29.214937297    -7.651603680
 C       -4.542068401    30.547392178    -7.494102432
 C       -3.935255360    31.695470149    -8.009609619
 C       -4.519118860    32.950298014    -7.835277516
 C       -5.722283911    33.084079181    -7.135537290
 C       -6.333030860    31.933794831    -6.617504257
 C       -5.750756664    30.682389660    -6.797526792
Si       -6.506963046    34.732040612    -6.895904922
 C       -5.338969996    36.119296819    -7.333752717
 C       -8.053383955    34.863855784    -7.997873486
 C       -7.046680992    34.875045216    -5.076103597
 C        1.554569179    23.542630798    -9.244157572
 C       -1.084018630    22.589887705   -10.543403896
 C       -5.089677132    12.682305516    -1.279820266
 C       -5.142049613    12.663100087     1.812261797
 C       -0.650380422    -0.911489339    -1.539827791
 C       -0.621946863    -0.917178639     1.547248268
 H        1.148705774     2.678034240     0.701657735
 H        0.218324047     4.921180012     0.691534266
 H       -3.561830551     3.393158713    -0.686720400
 H       -2.672188876     1.130069507    -0.692952651
 H       -3.375036040     5.690640986    -0.341109935
 H       -0.641821653     6.755560139     0.649136674
 H       -4.236048356     7.516409332    -0.382402559
 H       -5.173133614     9.756328139    -0.395789756
 H       -1.352502689    11.322736983     0.984612655
 H       -0.460656440     9.056731036     0.996192806
 H       -1.937438375    13.469763717    -0.534673042
 H       -3.284936905    14.935880976     1.871708202
 H       -2.230026425    16.824834693     2.677684138
 H       -0.388185566    18.469165643     2.660986673
 H        1.375428680    16.428291742    -0.709327509
 H       -0.396120157    14.739399383    -0.614390278
 H        3.635638377    18.986305207     0.508791415
 H        2.720061324    18.299904067    -0.865631135
 H        3.216867020    17.262600615     0.511243625
 H       -2.101014653    17.669020482    -0.861953581
 H       -0.872823025    17.699844949    -2.153078365
 H       -2.621988575    17.849649926    -2.548753129
 H       -1.615858772    22.244687947    -1.800387251
 H       -1.148972023    23.602238405    -3.791502901
 H       -1.078633836    20.044362307    -6.211885498
 H       -1.492700410    18.673742842    -4.234971860
 H       -0.761072339    23.846385644    -6.049121364
 H       -0.708684785    21.253510765    -7.789744908
 H       -2.805334985    24.349706285    -7.673873984
 H       -3.797486471    26.548300536    -7.383772763
 H       -0.550814315    28.350066616    -9.560476696
 H        0.484721234    26.171027960    -9.867638885
 H       -2.235133434    29.750401138    -8.750147864
 H       -4.553414238    28.409406402    -7.197164630
 H       -2.996736349    31.619034539    -8.555492350
 H       -3.997797498    33.811638843    -8.261906658
 H       -7.274155914    31.977327789    -6.061887585
 H       -6.240916073    29.800235757    -6.389903588
 H        0.468276212    20.231703657     1.581474054
 H        2.007530954    20.637205260     0.800994672
 H        0.693639690    21.090617772    -1.071554070
 H        0.765483305    19.358546590    -1.331762143
 H       -1.392065759    19.342417818     0.361585918
 H       -1.530250345    21.031005589    -0.166542957
 H        2.262687284    -1.029520449    -0.049208527
 H        2.276206804     0.471916751     0.909472890
 H        2.259987439     0.550595252    -0.873303055
 H       -5.802863410    37.103979398    -7.145410733
 H       -5.046634895    36.087562987    -8.397918446
 H       -4.416154605    36.066062981    -6.728036202
 H       -8.446577154    35.910632450    -7.846549262
 C       -7.729051278    34.687200105    -9.492674602
 C       -9.170272711    33.876037622    -7.616317816
 H       -7.781352798    34.035146152    -4.904910682
 C       -5.874600721    34.681477156    -4.096953834
 C       -7.760522283    36.198627793    -4.748954751
 H        1.704987164    24.174277723   -10.166747510
 C        2.246071409    24.246559187    -8.062609814
 C        2.237044229    22.184008721    -9.483775127
 H       -0.590442429    21.579847341   -10.637547893
 C       -2.600769598    22.369026183   -10.401617680
 C       -0.812125924    23.377729878   -11.836712480
 H       -5.932769999    11.935803556    -1.207862165
 C       -5.704821751    14.089599331    -1.371703869
 C       -4.306621035    12.390553528    -2.572195318
 H       -5.455140348    13.747360659     1.808135204
 C       -6.416641398    11.801130585     1.778825184
 C       -4.391352567    12.383571358     3.127087100
 H       -1.775107299    -0.920280351    -1.443263343
 C       -0.295789188    -0.183640198    -2.849169323
 C       -0.175992952    -2.372586370    -1.634202358
 H       -0.143389273    -1.938374967     1.511530620
 C       -0.186984875    -0.231828072     2.855585109
 C       -2.149252198    -1.106612217     1.573277282
 H       -6.996543242    35.412542468    -9.869437386
 H       -8.638259157    34.828357023   -10.094564105
 H       -7.354941462    33.681361324    -9.732375055
 H       -9.517872156    33.988287836    -6.581619532
 H       -8.879647535    32.826236099    -7.763438918
 H      -10.050858425    34.041067712    -8.254326164
 H       -5.348187544    33.726002003    -4.234172565
 H       -6.244123245    34.682134924    -3.061589819
 H       -5.126614858    35.482984313    -4.158694577
 H       -8.654810245    36.373379651    -5.360944602
 H       -7.107179185    37.074986707    -4.853328296
 H       -8.100814140    36.192596971    -3.703110501
 H        1.851038677    25.251824998    -7.860500934
 H        3.317386099    24.372753876    -8.272195464
 H        2.179852969    23.672610181    -7.126823156
 H        1.853831205    21.652943734   -10.364299906
 H        2.155982425    21.507152047    -8.621719657
 H        3.312763597    22.330114003    -9.658600003
 H       -2.873565964    21.761671174    -9.527706209
 H       -2.988026730    21.835436736   -11.281057472
 H       -3.165680907    23.310460538   -10.340894264
 H        0.255938613    23.496605012   -12.058784936
 H       -1.266386243    24.378996925   -11.831470863
 H       -1.247313209    22.849540822   -12.697436946
 H       -6.356010607    14.336183824    -0.523137988
 H       -6.331835673    14.167974934    -2.271562254
 H       -4.948959696    14.883968252    -1.453580543
 H       -3.869073972    11.382479904    -2.598405174
 H       -3.496464831    13.109727944    -2.754359960
 H       -4.977213852    12.454988693    -3.441077455
 H       -7.062173248    12.009873457     0.916316334
 H       -7.026993721    11.999523207     2.672151873
 H       -6.204962304    10.722557342     1.788760560
 H       -3.484048652    12.989578070     3.254516524
 H       -4.098021006    11.328922739     3.233614218
 H       -5.037863036    12.610756713     3.986515920
 H       -0.652491412     0.855900735    -2.878379348
 H       -0.764654286    -0.693183787    -3.702983857
 H        0.783079323    -0.168396043    -3.053197620
 H       -0.458611250    -2.978794387    -0.763872060
 H        0.910315641    -2.462951364    -1.766411910
 H       -0.632687679    -2.859227267    -2.508383838
 H        0.901435522    -0.131408365     2.954865349
 H       -0.520466412    -0.824269605     3.719748449
 H       -0.626969311     0.768060272     2.980578069
 H       -2.532486370    -1.675306782     0.716650749
 H       -2.697102468    -0.154666781     1.618561479
 H       -2.442299160    -1.670812017     2.470743265

