187   

Si        0.000000000     0.000000000     0.000000000
 C        1.865225606     0.000000000     0.000000000
 C       -0.678659634     1.711918871     0.000000000
 C        0.131607888     2.799931042     0.340501391
 C       -0.383582578     4.095670075     0.340085116
 C       -1.719781762     4.335629742     0.007176616
 C       -2.531245917     3.244406075    -0.329782498
 C       -2.018603576     1.949648325    -0.333113421
 C       -2.294663760     5.677832014    -0.004310850
 C       -1.610698613     6.794418499     0.297886381
 C       -2.156580777     8.147127125     0.295295039
 C       -1.304206658     9.206400012     0.636572239
 C       -1.768590764    10.517905556     0.651460828
 C       -3.097627786    10.805813153     0.311715301
 C       -3.949500917     9.750795634    -0.029688127
 C       -3.483961646     8.435159581    -0.031846956
Si       -3.683226957    12.548428551     0.340284936
 C       -5.143396972    12.885033417    -0.704129491
 C       -5.467319988    12.247224882    -1.836734062
 C       -6.655121733    12.562524059    -2.633879221
 C       -6.904350420    11.833733868    -3.806328289
 C       -8.014803959    12.096973937    -4.591429622
 C       -8.944281409    13.087461602    -4.206513375
 C       -8.694388860    13.821253666    -3.033168661
 C       -7.555760500    13.569249201    -2.277308846
 N      -10.064120168    13.334431433    -5.023275266
 C      -10.730915395    12.161612796    -5.616979754
 C      -10.986653849    14.393632216    -4.589705092
 C      -11.200590008    11.096338553    -4.611755505
 C      -12.548679341    11.417222197    -3.943085260
 N      -13.743254789    11.104857843    -4.748477319
 C      -13.878536227     9.789723883    -5.223060362
 C      -13.383994276     8.715206089    -4.451164195
 C      -13.508691483     7.412862315    -4.903368087
 C      -14.175568869     7.120798591    -6.102633815
 C      -14.693310964     8.181470880    -6.848872240
 C      -14.556080959     9.496927088    -6.421858201
 C      -14.164028806    12.189240253    -5.647605670
 C      -14.272959311     5.724118622    -6.525151002
 C      -14.879141285     5.302863894    -7.643725635
Si      -14.963700877     3.534784567    -8.112048995
 C      -13.483700705     2.654218747    -7.461663089
 C      -12.248343390     3.317620626    -7.489373969
 C      -11.102096046     2.693375773    -7.009217500
 C      -11.157087966     1.388825872    -6.499081067
 C      -12.387021448     0.727225200    -6.479347891
 C      -13.539628038     1.352022002    -6.958060140
 C       -9.922076710     0.787553636    -6.010233721
 C       -9.809021238    -0.446800487    -5.491503417
 C       -8.554132666    -1.017281175    -5.011053111
 C       -7.348965816    -0.309381955    -5.054351309
 C       -6.168318152    -0.882571084    -4.587671831
 C       -6.164056590    -2.185670565    -4.075475578
 C       -7.368372921    -2.896925377    -4.031166927
 C       -8.549745804    -2.316709049    -4.489187191
Si       -4.582673192    -2.904086925    -3.469750194
 C       -3.148969575    -2.289225440    -4.493989774
 C       -4.331578573    -2.341602804    -1.666749485
 C       -4.647342418    -4.802943026    -3.513325656
 C      -16.559891791     2.771073964    -7.416912574
 C      -14.994132386     3.397356942   -10.007749296
 C       -4.147085174    12.992638782     2.132910566
 C       -2.274096589    13.697601542    -0.226275850
 C       -0.646221735    -0.908999158    -1.541543667
 C       -0.624106638    -0.924740429     1.542345679
 H        1.184153269     2.677882316     0.610914429
 H        0.270790274     4.924288240     0.605363414
 H       -3.574962297     3.407544290    -0.592277624
 H       -2.699729673     1.138008225    -0.605771092
 H       -3.350790683     5.725993514    -0.281879936
 H       -0.552976276     6.734960514     0.575294659
 H       -0.266822595     9.003596290     0.895949449
 H       -1.057100888    11.299969181     0.931900359
 H       -4.997868534     9.917310265    -0.297701406
 H       -4.167215286     7.630202417    -0.295652238
 H       -5.769136088    13.709941001    -0.324475550
 H       -4.864909579    11.429633618    -2.254294466
 H       -6.208535076    11.051146784    -4.112378160
 H       -8.166649017    11.536776289    -5.510164035
 H       -9.381399971    14.592224945    -2.700981395
 H       -7.379670310    14.163307140    -1.379104870
 H      -11.777929985    14.531536280    -5.345431426
 H      -10.433306217    15.349990414    -4.530884850
 H      -11.461452751    14.202133743    -3.613732580
 H      -13.997679837    13.167630684    -5.167558208
 H      -15.252827979    12.103869035    -5.826360051
 H      -13.646751405    12.183501536    -6.621136333
 H      -12.896912771     8.903607858    -3.498448991
 H      -13.095095614     6.599166324    -4.304952740
 H      -15.216322526     7.981558645    -7.784985206
 H      -14.971278743    10.289789228    -7.034337055
 H      -13.782461422     5.032175640    -5.822858845
 H      -15.373935326     6.001941926    -8.331270161
 H      -12.144497162     4.336610787    -7.878798763
 H      -10.152937800     3.225646313    -7.033181232
 H      -12.454880096    -0.286349128    -6.089398214
 H      -14.473499700     0.785354285    -6.919326898
 H       -9.041666855     1.433686630    -6.094137822
 H      -10.679841625    -1.100954214    -5.403238281
 H       -7.323381253     0.702598469    -5.455001644
 H       -5.258731241    -0.276817018    -4.645101195
 H       -7.424685921    -3.916318694    -3.640253132
 H       -9.477126030    -2.884399774    -4.443290150
 H      -11.582691887    12.514387554    -6.238195846
 H      -10.013361824    11.700499794    -6.337970050
 H      -11.263435928    10.114951160    -5.125690593
 H      -10.427789258    10.959084151    -3.827733094
 H      -12.634902715    10.845490165    -2.987023322
 H      -12.590677054    12.487648750    -3.645661225
 H        2.263400489    -1.028762652    -0.056828719
 H        2.276422435     0.464801618     0.913016031
 H        2.260427592     0.556872018    -0.868974635
 H       -2.204686084    -2.777122871    -4.192986985
 H       -3.009240949    -1.198342340    -4.393119595
 H       -3.309525015    -2.509154646    -5.565223184
 H       -3.262561001    -2.601564821    -1.412445445
 C       -4.516318258    -0.822132187    -1.499084039
 C       -5.249173371    -3.060180840    -0.662448290
 H       -5.521096292    -5.100357482    -2.863287336
 C       -4.900393741    -5.355811130    -4.927523726
 C       -3.384144955    -5.468293177    -2.935956885
 H      -16.550052233     1.687549709    -7.731716508
 C      -16.613136322     2.823848007    -5.879370602
 C      -17.837970396     3.417191203    -7.981214433
 H      -15.911995543     3.959904831   -10.345653295
 C      -13.765123218     4.052297194   -10.663748671
 C      -15.111954350     1.946194611   -10.505577073
 H       -4.461932020    14.075634479     2.114424658
 C       -5.333569370    12.157564228     2.646870426
 C       -2.973694864    12.853280146     3.117960069
 H       -1.438893989    13.562398515     0.519698832
 C       -1.739210811    13.317371957    -1.618265385
 C       -2.669965921    15.184708833    -0.230809046
 H       -1.773412768    -0.874891312    -1.467617185
 C       -0.241399246    -0.212341022    -2.852675682
 C       -0.223736926    -2.387442868    -1.604593721
 H       -0.123736258    -1.935662444     1.515116522
 C       -0.216602234    -0.225673072     2.852250450
 C       -2.146969298    -1.147127434     1.555816052
 H       -3.865682939    -0.225836460    -2.152949156
 H       -4.284230271    -0.526836761    -0.464847430
 H       -5.551449180    -0.497916100    -1.682701476
 H       -5.110253779    -4.148456205    -0.645721953
 H       -6.315643061    -2.863279290    -0.839879142
 H       -5.039105119    -2.708099477     0.358301697
 H       -5.813094274    -4.959573765    -5.394503721
 H       -5.023864706    -6.447524707    -4.889548382
 H       -4.067957940    -5.163507366    -5.617836809
 H       -3.169235501    -5.171096323    -1.901177842
 H       -2.485056956    -5.271722847    -3.534926933
 H       -3.509392905    -6.560745233    -2.921752315
 H      -15.759939272     2.330195688    -5.394086129
 H      -17.514146206     2.311139073    -5.514636779
 H      -16.663700404     3.851205826    -5.489535140
 H      -17.915821772     3.348534377    -9.073655606
 H      -17.940248270     4.475459063    -7.702844597
 H      -18.725407409     2.907650386    -7.578728643
 H      -13.639960732     5.110542252   -10.397203809
 H      -13.859462623     4.018950625   -11.758390411
 H      -12.825779743     3.534679680   -10.421180275
 H      -16.019038401     1.437360944   -10.155193101
 H      -14.249883644     1.325022031   -10.223041080
 H      -15.154794603     1.927472360   -11.604236894
 H       -6.233624922    12.246776104     2.023330496
 H       -5.621693187    12.490825651     3.653896276
 H       -5.096381152    11.087325558     2.734084391
 H       -2.117733526    13.493545534     2.869924333
 H       -2.606919819    11.820159672     3.203191921
 H       -3.293936601    13.147516715     4.128041694
 H       -1.376897649    12.281455088    -1.678030476
 H       -0.886018985    13.957507943    -1.883275562
 H       -2.485278712    13.452686260    -2.414724800
 H       -2.999436217    15.551947850     0.749282562
 H       -3.461431389    15.413155011    -0.958637582
 H       -1.805482839    15.802150042    -0.514744906
 H       -0.558505613     0.839004590    -2.901185692
 H       -0.713923166    -0.716551436    -3.708535794
 H        0.840384141    -0.239251902    -3.037096363
 H       -0.562933003    -2.972652089    -0.740026306
 H        0.862256881    -2.520622979    -1.693889490
 H       -0.664510582    -2.866629670    -2.491316432
 H        0.868086268    -0.098845413     2.961089566
 H       -0.543181680    -0.822876790     3.715653837
 H       -0.680555035     0.764248371     2.970267548
 H       -2.511358794    -1.721586177     0.693228703
 H       -2.714409810    -0.206945137     1.601495077
 H       -2.434565084    -1.720789586     2.448746787

