187   

Si        0.000000000     0.000000000     0.000000000
 C        1.865634636     0.000000000     0.000000000
 C       -0.682393930     1.709328725     0.000000000
 C        0.146334324     2.821487334    -0.177335992
 C       -0.386117213     4.110759651    -0.174862571
 C       -1.757339573     4.317180292    -0.003981521
 C       -2.586950898     3.201308676     0.171528121
 C       -2.057820285     1.913892689     0.175793910
 C       -2.358920756     5.646446293     0.005543651
 C       -1.679261761     6.795934161    -0.145290626
 C       -2.282434445     8.124569869    -0.135521165
 C       -3.654378790     8.327896948     0.035619041
 C       -4.189203732     9.615796811     0.038479620
 C       -3.362799506    10.729670359    -0.139728276
 C       -1.986536679    10.528468771    -0.311138193
 C       -1.454167129     9.242272455    -0.303766904
Si       -4.040972805    12.439705853    -0.140408929
 C       -3.096393754    13.533591350    -1.268627979
 C       -2.477178050    13.108337349    -2.377281965
 C       -1.716861148    13.965562805    -3.292934064
 C       -1.125542489    13.364900249    -4.414498799
 C       -0.392475064    14.118184052    -5.320988847
 C       -0.245319621    15.497075281    -5.121035609
 C       -0.836533321    16.109014804    -4.012439172
 C       -1.570635240    15.344217253    -3.109755320
 N        0.503585528    16.348271634    -6.021713134
 C       -0.112853289    16.341400334    -7.373155636
 C        1.927791036    15.942255257    -6.030483070
 C        0.651710606    17.223607654    -8.373725435
 C        0.766285917    18.696011672    -7.930263510
 N       -0.438632806    19.527306443    -8.128899747
 C       -1.476013813    19.258824847    -7.191899333
 C       -1.219029001    19.590296779    -5.846797281
 C       -2.181594782    19.357565166    -4.879825554
 C       -3.429951375    18.815044379    -5.224038565
 C       -3.686707611    18.511898816    -6.561929131
 C       -2.728429527    18.739843497    -7.544614355
 C       -0.860718115    19.618936437    -9.536259372
 C       -4.411342353    18.589251688    -4.161853493
 C       -5.631803030    18.078305084    -4.369212075
Si       -6.884133168    17.781257550    -3.073006755
 C       -6.140510283    17.400459255    -1.432033974
 C       -4.792618576    17.041181014    -1.312517085
 C       -4.244741008    16.756148487    -0.064919847
 C       -5.031167350    16.811537077     1.092392923
 C       -6.378881146    17.161113974     0.971712171
 C       -6.929400825    17.449014989    -0.276447066
 C       -4.406016561    16.503428616     2.373230899
 C       -5.034493816    16.518260169     3.560547888
 C       -4.393448631    16.207125675     4.833605185
 C       -3.043395759    15.859856443     4.930037537
 C       -2.467893750    15.569383979     6.166501386
 C       -3.236701369    15.605796640     7.333931928
 C       -4.592588696    15.947896355     7.239184827
 C       -5.161976354    16.245755757     6.004314009
Si       -2.494538499    15.225386724     8.975119815
 C       -0.774945230    14.523134675     8.803391068
 C       -2.400046590    16.811824220    10.022142384
 C       -3.631227174    13.978177839     9.855628681
 C       -8.010050384    19.303983689    -2.911585008
 C       -7.926383384    16.297100812    -3.650383348
 C       -5.874509845    12.432064485    -0.637195262
 C       -3.906344354    13.145840710     1.619481778
 C       -0.598126359    -0.931284682    -1.549153945
 C       -0.661969727    -0.897269460     1.542635168
 H        1.226149324     2.722903387    -0.318503436
 H        0.281204133     4.959892207    -0.310423354
 H       -3.657779142     3.340136625     0.307835350
 H       -2.753494791     1.082799569     0.322557867
 H       -3.443422135     5.656398599     0.148832049
 H       -0.594828392     6.786835036    -0.288599644
 H       -4.319773756     7.477323621     0.170079020
 H       -5.269263541     9.710463243     0.180237046
 H       -1.291979012    11.363510082    -0.451785602
 H       -0.382397140     9.106105967    -0.434437664
 H       -3.090298921    14.596726860    -0.983583969
 H       -2.485439474    12.053616306    -2.689185495
 H       -1.238125014    12.293464984    -4.577828595
 H        0.065828360    13.639959489    -6.182514864
 H       -0.728288761    17.185851309    -3.877479007
 H       -2.034408219    15.832224402    -2.253195446
 H        2.521464185    16.757504034    -6.475363795
 H        2.132143612    15.011638299    -6.578724510
 H        2.276371769    15.817031479    -4.991076502
 H       -0.009836651    19.979840191   -10.138881170
 H       -1.664391078    20.371826464    -9.621183527
 H       -1.219149915    18.674073085    -9.972835296
 H       -0.255448879    20.017473089    -5.575520553
 H       -1.967560255    19.606810310    -3.840484581
 H       -4.648644713    18.088488674    -6.851271099
 H       -2.954850003    18.492065276    -8.576594349
 H       -4.051838039    18.896011807    -3.170004432
 H       -5.965331484    17.802867701    -5.382804403
 H       -4.135769418    16.953483397    -2.185731573
 H       -3.189694553    16.496758700     0.013147645
 H       -7.011581442    17.210577664     1.855407049
 H       -7.989052058    17.717241994    -0.307839346
 H       -3.341478253    16.251509659     2.312567774
 H       -6.095944025    16.771210950     3.628745354
 H       -2.423525901    15.822237051     4.035517396
 H       -1.405624271    15.309602197     6.179518264
 H       -5.242504865    15.990076401     8.117884139
 H       -6.216212049    16.510497290     5.950980481
 H       -0.207409229    15.315720385    -7.792185953
 H       -1.151567710    16.732888446    -7.245306354
 H        1.667827052    16.817386190    -8.535621769
 H        0.149437047    17.159144205    -9.357418274
 H        1.039911959    18.732149792    -6.847560831
 H        1.595477013    19.190146192    -8.484290129
 H        2.263013171    -1.030094499     0.036074620
 H        2.263343000     0.539306187     0.878764273
 H        2.273710023     0.482489605    -0.905460450
 H       -0.351923674    14.261397144     9.789824018
 H       -0.085468089    15.241479833     8.326241122
 H       -0.781154015    13.602796876     8.191341235
 H       -1.874010399    16.514523616    10.975405594
 C       -1.569518492    17.916500328     9.343275960
 C       -3.775175839    17.391044452    10.399258135
 H       -4.631628033    14.491138372     9.957766249
 C       -3.843382441    12.694021500     9.033513031
 C       -3.149721513    13.597247013    11.266677363
 H       -8.832277494    19.011107648    -2.196808131
 C       -7.269085905    20.514423170    -2.315670827
 C       -8.662323680    19.721172700    -4.241357413
 H       -8.432757023    16.630016098    -4.602495831
 C       -7.055861210    15.071380126    -3.977485142
 C       -9.019177717    15.886000927    -2.649335510
 H       -6.373659887    11.666950141     0.026450639
 C       -6.571526434    13.780643575    -0.397681079
 C       -6.077138664    12.001119487    -2.100143134
 H       -4.346918582    14.185196643     1.558908754
 C       -4.713019368    12.353491808     2.661406236
 C       -2.449778941    13.265603657     2.100327026
 H       -0.076256917    -1.931497182    -1.520415230
 C       -2.115307197    -1.188300689    -1.576227687
 C       -0.196310346    -0.220059441    -2.854460180
 H       -1.786695563    -0.887474938     1.445690529
 C       -0.209688469    -2.364979319     1.641262812
 C       -0.296387877    -0.170394626     2.849523158
 H       -0.539662663    17.611695401     9.116870578
 H       -1.492217122    18.790627499    10.005774041
 H       -2.022146293    18.278168017     8.408840477
 H       -4.408614275    16.686744757    10.953150843
 H       -4.343214030    17.743233977     9.526914097
 H       -3.646638846    18.266228635    11.053072629
 H       -4.241304183    12.883959710     8.026311091
 H       -4.573936824    12.042522910     9.533936858
 H       -2.926783371    12.099840311     8.920450218
 H       -3.040989219    14.459606875    11.937044675
 H       -2.194848180    13.054955253    11.261468609
 H       -3.879960339    12.927483035    11.743962412
 H       -6.827069795    20.312741543    -1.329954647
 H       -7.966559729    21.351984257    -2.173673791
 H       -6.466931136    20.888639645    -2.968043550
 H       -9.272053759    18.930263717    -4.695968522
 H       -7.929522311    20.052688160    -4.990742686
 H       -9.338653494    20.572522445    -4.076947939
 H       -6.279555037    15.270862746    -4.729397954
 H       -7.678547939    14.262647407    -4.384184503
 H       -6.552497000    14.655100979    -3.090769241
 H       -9.741534081    16.684876259    -2.440091812
 H       -8.611142693    15.541452783    -1.688124397
 H       -9.600953301    15.044631832    -3.053024900
 H       -6.585066674    14.082803761     0.658485980
 H       -7.622638926    13.725305779    -0.713624033
 H       -6.121823633    14.610974671    -0.964103837
 H       -5.690462685    10.994945688    -2.313378501
 H       -5.612406685    12.691498582    -2.819624546
 H       -7.148749469    11.976956074    -2.342520667
 H       -5.786800892    12.310340277     2.439005002
 H       -4.626418778    12.836332774     3.647031078
 H       -4.353817663    11.323559164     2.791425675
 H       -1.823108138    13.886546592     1.447452684
 H       -1.955201901    12.289515621     2.206530438
 H       -2.422421516    13.728949523     3.097915412
 H       -2.478747374    -1.751030250    -0.707229877
 H       -2.377895629    -1.787455428    -2.460395281
 H       -2.702984398    -0.262612237    -1.650019012
 H        0.886503816    -0.071850775    -2.955846971
 H       -0.678242445     0.761360036    -2.971532751
 H       -0.506541727    -0.820363700    -3.721670787
 H       -0.497470944    -2.968258044     0.770611981
 H       -0.676833211    -2.843562135     2.514321410
 H        0.874715852    -2.470607631     1.777686593
 H       -0.641257254     0.873299208     2.876185467
 H        0.782717868    -0.167570153     3.052278042
 H       -0.770732435    -0.671855429     3.705140587

