187   

Si        0.000000000     0.000000000     0.000000000
 C        1.865387629     0.000000000     0.000000000
 C       -0.679569404     1.710758791     0.000000000
 C        0.137488130     2.813887739    -0.266245030
 C       -0.390500226     4.104978086    -0.263036957
 C       -1.745852653     4.322050682    -0.002100102
 C       -2.564141500     3.215026628     0.260675817
 C       -2.039527444     1.925697696     0.262125945
 C       -2.342263191     5.653602207     0.011873674
 C       -1.672539524     6.795656306    -0.218996844
 C       -2.271798647     8.126055950    -0.204343443
 C       -1.456669755     9.235800522    -0.462471774
 C       -1.984862751    10.524602234    -0.459034896
 C       -3.341382222    10.734939741    -0.184225072
 C       -4.157446719     9.627504954     0.074535094
 C       -3.628163035     8.338155705     0.058727496
Si       -4.066121939    12.425851415    -0.172861592
 C       -5.442343498    12.573061461     1.021352602
 C       -5.535640554    11.864854636     2.155125364
 C       -6.637416090    11.982978927     3.110792364
 C       -6.621395215    11.184801560     4.264453830
 C       -7.638978451    11.257478110     5.200484611
 C       -8.698882388    12.176939560     5.033613889
 C       -8.716091379    12.978141683     3.875933405
 C       -7.709642911    12.859569828     2.926064223
 N       -9.718094599    12.232446986     5.994534838
 C       -9.337350738    12.066666355     7.406959295
 C      -10.817623973    13.177952770     5.764696192
 C       -8.162893821    12.937985768     7.889974632
 C       -8.517096080    14.414915818     8.136860910
 N       -9.457773502    14.690328762     9.241855218
 C      -10.829634598    14.639676148     8.885948859
 C      -11.282228211    15.576291241     7.934350007
 C      -12.610147343    15.582649948     7.541377185
 C      -13.533218178    14.686782425     8.102782825
 C      -13.085094023    13.781331838     9.067265450
 C      -11.753652637    13.760610149     9.469192722
 C       -9.093783582    14.032805149    10.505928663
 C      -14.925872974    14.735981433     7.651226876
 C      -15.891358944    13.932391601     8.114726942
Si      -17.642733879    13.947046663     7.590629228
 C      -18.166942272    12.235047154     7.171342574
 C      -17.213295223    11.282447033     6.791168503
 C      -17.603435820     9.984261946     6.472361409
 C      -18.953094879     9.610432160     6.513140210
 C      -19.902567392    10.566324851     6.885989876
 C      -19.515487002    11.865763258     7.210930740
 C      -19.311798762     8.238132752     6.170376911
 C      -20.564244627     7.750853955     6.174459054
 C      -20.923243982     6.378682308     5.831764435
 C      -19.975743869     5.421956509     5.458902862
 C      -20.363486967     4.120812708     5.139238619
 C      -21.709754571     3.746553494     5.191928348
 C      -22.662188870     4.704150960     5.566572681
 C      -22.272637588     6.003319090     5.880001545
Si      -22.238758592     2.033678250     4.773284786
 C      -20.782550616     0.873549680     4.659112408
 C      -23.449897821     1.440892090     6.116865977
 C      -23.145410144     2.039551050     3.099576176
 C      -18.699423924    14.611074518     9.026125539
 C      -17.902586228    15.062368872     6.072971861
 C       -2.731944001    13.710151635     0.263670019
 C       -4.739038771    12.810778010    -1.910365621
 C       -0.609840414    -0.924050111    -1.548476588
 C       -0.658358148    -0.902161375     1.541558205
 H        1.204677920     2.706879236    -0.479078006
 H        0.267701188     4.947081923    -0.468823947
 H       -3.622766623     3.362129190     0.466581289
 H       -2.726083788     1.101649785     0.475993427
 H       -3.414245477     5.671902936     0.230357072
 H       -0.601064162     6.778254283    -0.438017864
 H       -0.398359709     9.092467695    -0.670939556
 H       -1.301574947    11.350621335    -0.673571401
 H       -5.226131968     9.732296109     0.292458218
 H       -4.284612534     7.493070047     0.258317589
 H       -6.206072279    13.316891548     0.748884379
 H       -4.781164243    11.123448206     2.455475900
 H       -5.800670013    10.483616389     4.422609234
 H       -7.622588561    10.598817815     6.063686628
 H       -9.513425193    13.694765053     3.709245980
 H       -7.754934068    13.479509071     2.029569419
 H      -11.588833897    13.058283162     6.548676303
 H      -11.305108968    12.942694869     4.800871575
 H      -10.502251809    14.234033831     5.759786841
 H       -8.045072825    14.280523156    10.747090377
 H       -9.200874662    12.936999030    10.499514501
 H       -9.719670196    14.443849424    11.318564908
 H      -10.582714711    16.300322968     7.520691481
 H      -12.944397564    16.306847760     6.797860215
 H      -13.784863025    13.077871667     9.521424938
 H      -11.438609646    13.047710352    10.225388490
 H      -15.105732442    15.502368552     6.886198805
 H      -15.678862796    13.177704267     8.891152897
 H      -16.145644906    11.519793290     6.736315705
 H      -16.848619966     9.254416683     6.185022274
 H      -20.957510556    10.301616715     6.925382152
 H      -20.302302236    12.569305361     7.496418683
 H      -18.466872557     7.599026969     5.897284147
 H      -21.409321352     8.389821945     6.447187420
 H      -18.920841851     5.686676690     5.413525445
 H      -19.576897587     3.417059023     4.853126553
 H      -23.728582891     4.468685140     5.626150419
 H      -23.027062851     6.733303307     6.167141568
 H      -10.233638153    12.247044018     8.043230187
 H       -9.078802110    10.989524886     7.551989165
 H       -7.739785671    12.491854449     8.809567455
 H       -7.339303325    12.898146803     7.145344807
 H       -7.581863550    14.977647836     8.374581427
 H       -8.914191947    14.862684922     7.198478578
 H        2.262940153    -1.029504660     0.049410358
 H        2.261896134     0.550707291     0.872312048
 H        2.274670525     0.470999159    -0.910856732
 H      -21.112896196    -0.160888642     4.456191493
 H      -20.211609066     0.859387776     5.605290491
 H      -20.089322803     1.165555608     3.850847212
 H      -24.315241396     2.165545668     6.094225481
 C      -24.009708461     0.030500389     5.860181556
 C      -22.834316574     1.487468862     7.527112778
 H      -23.376818937     0.958097313     2.875531709
 C      -24.473802900     2.816651554     3.117572535
 C      -22.269894402     2.586817333     1.957242937
 H      -19.762495420    14.627301095     8.647581926
 C      -18.650393188    13.700009848    10.265531904
 C      -18.319853264    16.043630266     9.440096434
 H      -17.477043424    16.070061169     6.350333608
 C      -17.151116398    14.548058590     4.831373506
 C      -19.385136343    15.256050899     5.707822653
 H       -1.938871454    13.622436245    -0.533801399
 C       -3.257108846    15.156960532     0.252691713
 C       -2.074667625    13.428172612     1.626752739
 H       -5.156326917    13.857506466    -1.858650149
 C       -3.652950359    12.781735269    -2.999762150
 C       -5.880087916    11.860668977    -2.315972649
 H       -0.106812128    -1.933649545    -1.518037158
 C       -2.131910199    -1.150992206    -1.573930390
 C       -0.194446933    -0.223080270    -2.855010788
 H       -1.783105100    -0.898936080     1.444484932
 C       -0.198407943    -2.367591053     1.639188141
 C       -0.297176367    -0.174542582     2.849267848
 H      -24.528301542    -0.062972192     4.897274819
 H      -24.748897196    -0.226046089     6.633043039
 H      -23.239023127    -0.750533167     5.902233066
 H      -22.459622811     2.483248112     7.804385461
 H      -22.009226761     0.775080278     7.659187906
 H      -23.592828459     1.225064141     8.278352661
 H      -25.190475972     2.439228267     3.857803821
 H      -24.970746089     2.732178475     2.140013240
 H      -24.336088107     3.892098969     3.297754482
 H      -21.334210817     2.029902925     1.819137593
 H      -22.009642390     3.647032780     2.088758266
 H      -22.810820412     2.519365299     1.002433328
 H      -18.945757807    12.662135382    10.056208541
 H      -19.348016159    14.068341841    11.031313167
 H      -17.659448469    13.674109807    10.739159707
 H      -18.412629212    16.772040834     8.624255542
 H      -17.297588218    16.118080844     9.837901581
 H      -18.987089072    16.393126851    10.241089146
 H      -16.072068305    14.418969385     4.991134856
 H      -17.258002846    15.262147332     4.002736938
 H      -17.544903512    13.589443388     4.463025435
 H      -19.973594708    15.723267361     6.507706239
 H      -19.883661971    14.317406880     5.427044142
 H      -19.473417157    15.920135293     4.835530386
 H       -3.671155253    15.462908685    -0.716436712
 H       -2.436469169    15.855916251     0.469611797
 H       -4.024566969    15.338504809     1.018180505
 H       -1.622733132    12.428876056     1.695564681
 H       -2.776048462    13.530942128     2.467547301
 H       -1.263869182    14.146595020     1.811474013
 H       -2.845351578    13.504987239    -2.829672570
 H       -4.091835570    13.035887432    -3.975454922
 H       -3.194339484    11.789719451    -3.120381683
 H       -6.724623376    11.867736361    -1.613246559
 H       -5.548882405    10.817866693    -2.425777480
 H       -6.288762455    12.156929709    -3.292346178
 H       -2.503309693    -1.717372315    -0.710635989
 H       -2.409168697    -1.733863343    -2.464454263
 H       -2.701952712    -0.213125588    -1.633725848
 H        0.890895066    -0.094564427    -2.955774110
 H       -0.659119743     0.766252070    -2.975063785
 H       -0.514496481    -0.820030829    -3.721021011
 H       -0.482686487    -2.971614572     0.767881533
 H       -0.663541021    -2.849383331     2.511558641
 H        0.886452471    -2.467740446     1.776118762
 H       -0.645871656     0.867838355     2.876093814
 H        0.781751173    -0.167637733     3.053065842
 H       -0.770350240    -0.678369633     3.704104215

