187   

Si        0.000000000     0.000000000     0.000000000
 C        1.865293508     0.000000000     0.000000000
 C       -0.668234468     1.715715604     0.000000000
 C        0.091959297     2.767851855    -0.521872371
 C       -0.406907728     4.069520204    -0.525487589
 C       -1.681285911     4.349345349    -0.024156203
 C       -2.443300565     3.293604107     0.493165969
 C       -1.943630441     1.993621230     0.508316642
 C       -2.241779590     5.696914754    -0.008954784
 C       -1.606426427     6.789504581    -0.465465558
 C       -2.153425191     8.141666140    -0.456839632
 C       -1.366907163     9.182429717    -0.969693551
 C       -1.840487073    10.490871866    -0.985323104
 C       -3.124322643    10.787144089    -0.508085087
 C       -3.914630580     9.748999275    -0.005125270
 C       -3.432030377     8.440180666     0.020703562
Si       -3.735882024    12.521818564    -0.535463134
 C       -5.554263065    12.603620827    -0.350703821
 C       -6.175326901    13.396798696     0.532751010
 C       -7.624372866    13.490032582     0.710050040
 C       -8.121510990    14.371331455     1.681357131
 C       -9.482126205    14.507345248     1.899796606
 C      -10.409997878    13.838370469     1.072609557
 C       -9.910098030    12.972702661     0.078637409
 C       -8.541326268    12.788522790    -0.076106660
 N      -11.788387480    13.978235505     1.296560980
 C      -12.297993368    15.223538753     1.894850123
 C      -12.692798019    13.417644492     0.279377332
 C      -12.370732529    16.433343086     0.943245366
 C      -11.063317994    17.250019284     0.950591867
 N      -10.873490386    18.166270745    -0.183200828
 C      -10.433003199    17.596371907    -1.407600055
 C      -10.402464910    16.214768548    -1.650872733
 C       -9.958943510    15.729703500    -2.873231067
 C       -9.459057458    16.595686953    -3.853376525
 C       -9.456522056    17.970770119    -3.595133827
 C       -9.938432389    18.470747275    -2.393908353
 C      -11.970531009    19.140915847    -0.331346603
 C       -9.007225729    16.022080299    -5.120997752
 C       -8.507979014    16.727663512    -6.144717283
Si       -7.959630468    15.947053429    -7.706890409
 C       -7.348552769    14.241170175    -7.389264719
 C       -6.773066781    13.923936593    -6.153694385
 C       -6.306605106    12.635900576    -5.900968776
 C       -6.394045666    11.639327809    -6.876026887
 C       -6.963547080    11.961007080    -8.115031477
 C       -7.433268318    13.246903876    -8.371179419
 C       -5.918394298    10.278979232    -6.653493662
 C       -5.353774307     9.836626880    -5.516950480
 C       -4.882231226     8.472100739    -5.308190301
 C       -4.982584987     7.491597660    -6.298264504
 C       -4.522438761     6.195973264    -6.067821145
 C       -3.952337355     5.854385575    -4.837914616
 C       -3.847929979     6.836931107    -3.842968516
 C       -4.304914303     8.130731465    -4.077635379
Si       -3.344815233     4.145197952    -4.532618346
 C       -4.014568667     2.943255341    -5.793059514
 C       -1.441587522     4.123081694    -4.576087112
 C       -3.885390272     3.620319842    -2.785482239
 C       -9.405754415    15.915258848    -8.939814692
 C       -6.542669141    16.983615217    -8.436782794
 C       -2.869603309    13.495695207     0.850929612
 C       -3.277565846    13.315361480    -2.206220479
 C       -0.610023044    -0.897922137    -1.564388244
 C       -0.657101362    -0.925824828     1.526804901
 H        1.092625455     2.611585909    -0.934337856
 H        0.214496947     4.870971241    -0.922173653
 H       -3.438055172     3.488607162     0.889888482
 H       -2.581771757     1.212312498     0.929660328
 H       -3.249492270     5.771109798     0.409671281
 H       -0.595491262     6.712516805    -0.878539457
 H       -0.372932312     8.969008571    -1.358077862
 H       -1.180221347    11.262517557    -1.391462153
 H       -4.924819741     9.924667554     0.378139578
 H       -4.065929845     7.648874671     0.416706045
 H       -6.118065882    11.951809676    -1.035263275
 H       -5.626687848    14.060667591     1.217037932
 H       -7.426190991    14.942284541     2.298710570
 H       -9.826625093    15.139285352     2.713637942
 H      -10.584628681    12.429319835    -0.574927536
 H       -8.183022404    12.098110697    -0.841977578
 H      -13.742904112    13.612191216     0.552874425
 H      -12.568000937    12.319102761     0.251835504
 H      -12.520084996    13.821068822    -0.732689793
 H      -12.175413374    19.609823898     0.645498150
 H      -12.902854797    18.696571343    -0.713521266
 H      -11.663284295    19.944740764    -1.022060232
 H      -10.729501425    15.506295903    -0.893871173
 H       -9.974879435    14.653953236    -3.054373115
 H       -9.068772369    18.662858857    -4.342404020
 H       -9.918243373    19.540791210    -2.203119669
 H       -9.119286191    14.926924075    -5.154960077
 H       -8.412638756    17.821269028    -6.100801094
 H       -6.666979934    14.664647163    -5.352819532
 H       -5.873322704    12.411760621    -4.926403482
 H       -7.040379968    11.200035467    -8.888814913
 H       -7.866536551    13.439199208    -9.356095800
 H       -6.051405509     9.605896053    -7.505455895
 H       -5.218922564    10.503609235    -4.659972783
 H       -5.424219756     7.731570556    -7.263375514
 H       -4.629194745     5.472530591    -6.880239707
 H       -3.406308640     6.627122689    -2.862362474
 H       -4.211385597     8.881399739    -3.292873065
 H      -13.318651763    15.000219991     2.288662780
 H      -11.690171224    15.470979585     2.794166268
 H      -12.609455695    16.101267737    -0.084454638
 H      -13.214652481    17.083643096     1.238540525
 H      -11.010998462    17.866725683     1.877858297
 H      -10.175058289    16.575253780     0.984666635
 H        2.262638259    -1.028290052     0.070500715
 H        2.260611291     0.567914380     0.861940050
 H        2.277656343     0.453146590    -0.918226798
 H       -3.650575955     1.918825597    -5.597693683
 H       -3.712041445     3.214158327    -6.819220311
 H       -5.118655505     2.915565522    -5.762893101
 H       -1.135876415     3.150254650    -4.092551526
 C       -0.864931080     4.147202831    -6.003217768
 C       -0.812577940     5.275724209    -3.773920216
 H       -3.235092684     4.209505207    -2.071722765
 C       -5.353560798     3.962607891    -2.475727654
 C       -3.654800484     2.125349698    -2.507852198
 H       -8.993728901    15.477876607    -9.894833674
 C      -10.560895897    15.016898039    -8.462036691
 C       -9.960787365    17.314723600    -9.259966379
 H       -6.963952812    18.016493523    -8.604002096
 C       -5.352433801    17.102954577    -7.467414720
 C       -6.036064521    16.448852346    -9.787544287
 H       -3.334961815    14.523872580     0.845342093
 C       -3.101212242    12.868140851     2.237890674
 C       -1.354824531    13.662625405     0.635642941
 H       -2.161396556    13.473213997    -2.181181006
 C       -3.601222340    12.400316512    -3.398880940
 C       -3.950337477    14.681777134    -2.423314349
 H       -0.066308883    -1.886587719    -1.577319887
 C       -2.121050224    -1.188593762    -1.557526365
 C       -0.253355577    -0.140855269    -2.857044761
 H       -1.782066018    -0.923846838     1.431737141
 C       -0.195249435    -2.392368744     1.599149249
 C       -0.293686422    -0.221049177     2.846321159
 H       -1.190566978     3.298555991    -6.617587813
 H        0.232569693     4.097503900    -5.965615814
 H       -1.111905472     5.068545396    -6.548445057
 H       -1.160897866     5.319258057    -2.732391430
 H       -1.002035259     6.260012762    -4.226360074
 H        0.278683371     5.156074319    -3.734155753
 H       -5.580005195     5.033078856    -2.583218657
 H       -5.589780619     3.699444649    -1.435315338
 H       -6.064570522     3.411326219    -3.104351858
 H       -2.610912561     1.813471268    -2.653536146
 H       -4.291366390     1.471459489    -3.116432283
 H       -3.889845275     1.902041344    -1.455843068
 H      -10.255532947    13.978588754    -8.270938803
 H      -11.346131432    14.970636640    -9.229397613
 H      -11.043926927    15.392091346    -7.548171875
 H       -9.209898940    17.996211128    -9.679567877
 H      -10.409205103    17.806458171    -8.385334698
 H      -10.759518858    17.238803290   -10.011801556
 H       -5.624473053    17.532822229    -6.493540805
 H       -4.584525208    17.764113416    -7.892959506
 H       -4.857881781    16.138981281    -7.278583879
 H       -6.810501943    16.423990477   -10.564632368
 H       -5.603023869    15.440854056    -9.713604970
 H       -5.235907879    17.097380769   -10.172826049
 H       -4.162038841    12.743735547     2.494962042
 H       -2.667095065    13.507941036     3.019131912
 H       -2.621856651    11.884347351     2.344644067
 H       -1.101279337    14.194722396    -0.289942355
 H       -0.814147846    12.705928694     0.634573735
 H       -0.922930521    14.255231677     1.455589824
 H       -3.075252231    11.435452083    -3.362884897
 H       -3.291009066    12.879450371    -4.339534980
 H       -4.677136995    12.193610613    -3.490348077
 H       -3.696806693    15.419890407    -1.651941879
 H       -5.048067733    14.618406293    -2.469300944
 H       -3.625399016    15.114799307    -3.380447614
 H       -2.437540440    -1.823254694    -0.720134928
 H       -2.404310570    -1.728127352    -2.473040161
 H       -2.733825112    -0.276197006    -1.536796205
 H        0.825945228     0.009155258    -2.988808858
 H       -0.736140637     0.845305911    -2.925644732
 H       -0.592981762    -0.711096914    -3.733635981
 H       -0.478141305    -2.981669477     0.717311481
 H       -0.660167724    -2.889887622     2.462803103
 H        0.889650873    -2.493866633     1.735080075
 H       -0.638583062     0.821748176     2.892117206
 H        0.785638903    -0.220598927     3.049213206
 H       -0.766531712    -0.738666386     3.693142021

