187   

Si        0.000000000     0.000000000     0.000000000
 C        1.865753071     0.000000000     0.000000000
 C       -0.640034125     1.727080572     0.000000000
 C        0.006954802     2.699272406     0.772916752
 C       -0.454694242     4.014137083     0.792578323
 C       -1.590860453     4.383420576     0.066702956
 C       -2.241228349     3.408238746    -0.699110466
 C       -1.769180255     2.098110120    -0.739015620
 C       -2.108951361     5.747683898     0.058692006
 C       -1.560715203     6.772170508     0.733776039
 C       -2.068215650     8.139347067     0.734247643
 C       -3.201747059     8.530302858     0.016140279
 C       -3.645896946     9.851319513     0.050179458
 C       -2.948031714    10.826314918     0.775321304
 C       -1.806558759    10.433467881     1.482526989
 C       -1.374880238     9.109752296     1.466842516
Si       -3.567830816    12.564991567     0.796082096
 C       -2.372728028    13.793116690     1.451406652
 C       -1.414734667    13.612845218     2.369299872
 C       -0.504042761    14.663340019     2.830029831
 C        0.459918977    14.346697519     3.799228250
 C        1.344668538    15.303124501     4.268453694
 C        1.364641077    16.599876992     3.712167768
 C        0.407504434    16.912546381     2.731184552
 C       -0.527514609    15.965240459     2.327265760
 N        2.280701618    17.562619056     4.210238636
 C        3.633626242    17.006253997     4.471274606
 C        2.303927518    18.845581660     3.486745717
 C        4.625923621    17.992443891     5.107609117
 C        4.146126456    18.603494121     6.440128700
 N        3.867548166    17.650574055     7.528957595
 C        2.617427359    16.990880777     7.480533204
 C        1.465675328    17.763227321     7.213397511
 C        0.222479929    17.164074629     7.156069512
 C        0.065182391    15.796968887     7.440702270
 C        1.197400147    15.042821447     7.743253067
 C        2.463100810    15.625227449     7.765108565
 C        5.034521145    16.829397210     7.887102716
 C       -1.282440320    15.237120394     7.358298135
 C       -1.605160555    13.959402747     7.597076214
Si       -3.313654993    13.325416427     7.475476034
 C       -3.460648427    11.801921105     6.459304490
 C       -2.451250539    11.343260416     5.607062982
 C       -2.631975613    10.176211128     4.863962581
 C       -3.822653924     9.445891163     4.953054272
 C       -4.830125513     9.911556482     5.805619670
 C       -4.654404542    11.074081034     6.548948079
 C       -3.995314180     8.226017746     4.167965494
 C       -5.113541451     7.481629994     4.210592784
 C       -5.364694687     6.257154971     3.462636754
 C       -4.438829229     5.694636757     2.582710893
 C       -4.737311762     4.519023799     1.894141942
 C       -5.971161855     3.883200410     2.068519317
 C       -6.903805773     4.449670311     2.946331444
 C       -6.604227142     5.623789911     3.630521041
Si       -6.357603390     2.332195115     1.156330933
 C       -4.832740537     1.273033367     1.006214458
 C       -7.719745770     1.361879264     2.066337560
 C       -7.010691422     2.782709646    -0.573942907
 C       -3.957889357    12.972161475     9.230185267
 C       -4.417454834    14.652427021     6.660609574
 C       -3.903128423    13.163200972    -0.987923265
 C       -5.212369297    12.610863071     1.746668742
 C       -0.651081509    -0.927389807    -1.529250003
 C       -0.620853451    -0.901522271     1.557445426
 H        0.891089235     2.468028526     1.373928466
 H        0.075598274     4.752493125     1.391329872
 H       -3.121403978     3.678178750    -1.281791652
 H       -2.312837493     1.384052058    -1.363923180
 H       -3.003837371     5.897712216    -0.552681087
 H       -0.663912869     6.619086856     1.342122555
 H       -3.759544475     7.797931199    -0.564653414
 H       -4.556658858    10.085500071    -0.509125786
 H       -1.206940753    11.144048148     2.060860007
 H       -0.483950881     8.831844900     2.026448027
 H       -2.512895551    14.788756677     0.994548820
 H       -1.251373041    12.652818196     2.879798976
 H        0.493964690    13.340918356     4.220372806
 H        2.019293759    15.047741037     5.084338526
 H        0.373939094    17.897692156     2.278196522
 H       -1.274840478    16.248617275     1.585362932
 H        2.970717060    19.556112935     4.000915745
 H        1.294350146    19.295320918     3.515585888
 H        2.629359977    18.757784417     2.438084010
 H        5.925029662    17.474682024     7.971956203
 H        5.254205714    16.024200291     7.168370441
 H        4.866464312    16.381076210     8.883467669
 H        1.557598732    18.829414436     7.019943281
 H       -0.649078162    17.766877900     6.899166595
 H        1.099951595    13.979798271     7.964566440
 H        3.321054569    15.003044231     7.993379879
 H       -2.028400520    15.991913479     7.065805623
 H       -0.849173689    13.218865838     7.894117753
 H       -1.504593678    11.879967795     5.497856519
 H       -1.840316122     9.832716004     4.199767741
 H       -5.766851591     9.364315925     5.897746545
 H       -5.479695674    11.380182168     7.198926323
 H       -3.155202457     7.955537417     3.523252461
 H       -5.945790795     7.781361077     4.858535064
 H       -3.471233968     6.172908887     2.428014474
 H       -3.965437729     4.118060472     1.227792046
 H       -7.885011249     4.001540978     3.121478700
 H       -7.342314799     6.050158157     4.306660579
 H        3.509761813    16.146361301     5.175527556
 H        4.078599708    16.598722839     3.534972669
 H        5.583912213    17.458409480     5.267207181
 H        4.863463704    18.811849395     4.403132169
 H        4.920115389    19.311764445     6.818284973
 H        3.232373102    19.214857804     6.253895447
 H        2.264452550    -1.027718374    -0.068175452
 H        2.277694707     0.457536779     0.916073715
 H        2.258906875     0.567652527    -0.863201649
 H       -5.042340366     0.337657935     0.459489942
 H       -4.452347791     1.003646173     2.009815698
 H       -4.016224756     1.799668370     0.477388944
 H       -8.607992933     2.054932844     2.130374085
 C       -8.170393642     0.092871628     1.319598032
 C       -7.314431642     0.975442988     3.500671869
 H       -7.263944303     1.803896393    -1.073501757
 C       -8.288872369     3.639520028    -0.525535553
 C       -5.964408529     3.503033487    -1.444042448
 H       -5.042007186    12.682222425     9.115304995
 C       -3.221810768    11.797654717     9.899536067
 C       -3.891571691    14.200377408    10.154917742
 H       -4.311811131    15.575434667     7.300419537
 C       -3.956427812    14.996920222     5.232874910
 C       -5.908961002    14.276491786     6.615359644
 H       -4.097947508    14.271496365    -0.895319080
 C       -2.672014669    12.968537516    -1.891334535
 C       -5.127692399    12.537797525    -1.676060141
 H       -5.953445956    12.064866659     1.091027665
 C       -5.149005091    11.870062422     3.088564795
 C       -5.739002918    14.038610689     1.973943672
 H       -1.777229707    -0.872294786    -1.470175608
 C       -0.211889002    -0.274550237    -2.852708796
 C       -0.255497826    -2.415103006    -1.555721939
 H       -0.051741690    -1.875358164     1.589524544
 C       -0.315511938    -0.126653465     2.852343298
 C       -2.123596674    -1.228973323     1.522625259
 H       -8.557880363     0.295650375     0.313048735
 H       -8.988061859    -0.395301191     1.869391742
 H       -7.372787559    -0.656064966     1.227139016
 H       -7.005640562     1.834054635     4.113870135
 H       -6.498857747     0.240275173     3.530030199
 H       -8.165128044     0.514956054     4.022278407
 H       -9.120026563     3.154083313     0.001470957
 H       -8.648924770     3.839054466    -1.544768470
 H       -8.126006712     4.621923739    -0.058850706
 H       -5.072142862     2.891515480    -1.632646595
 H       -5.640796163     4.462362739    -1.014974614
 H       -6.390737839     3.736266312    -2.429982628
 H       -3.268517033    10.866716963     9.317037166
 H       -3.678419665    11.572415125    10.873691277
 H       -2.163080756    12.013194315    10.097888297
 H       -4.471415182    15.055326279     9.784102697
 H       -2.863383982    14.547752853    10.331843954
 H       -4.306626558    13.951928175    11.141852511
 H       -2.901719259    15.299587708     5.161332764
 H       -4.544155388    15.835596868     4.836779882
 H       -4.093273735    14.160797810     4.528945399
 H       -6.339113815    14.069217535     7.602665231
 H       -6.109438073    13.409278108     5.969826724
 H       -6.491897440    15.108726955     6.195221033
 H       -1.765497608    13.455693646    -1.505368489
 H       -2.856781013    13.403065814    -2.883475620
 H       -2.428695432    11.909552109    -2.058973913
 H       -6.058557458    12.660196553    -1.107964560
 H       -5.000794978    11.468447914    -1.890776392
 H       -5.297598792    13.023008579    -2.648377983
 H       -4.908457867    10.800712526     2.981457854
 H       -6.121732350    11.912883165     3.597316714
 H       -4.416750230    12.292734253     3.793647122
 H       -5.894569090    14.599667459     1.044161829
 H       -5.082916074    14.637912108     2.621524732
 H       -6.715351870    14.001590286     2.478267360
 H       -0.485186036     0.786938340    -2.930519465
 H       -0.694666157    -0.780202878    -3.701048405
 H        0.870280079    -0.348014750    -3.026036636
 H       -0.598152352    -2.972766188    -0.674393905
 H        0.827830801    -2.569190650    -1.647246526
 H       -0.709910560    -2.908668697    -2.427040224
 H        0.751604700     0.086338248     2.993459332
 H       -0.627915651    -0.716512650     3.726183686
 H       -0.858944644     0.827851347     2.915960649
 H       -2.411710249    -1.865477523     0.676681210
 H       -2.754953713    -0.328464523     1.496349816
 H       -2.409512132    -1.779136544     2.430841113

