187   

Si        0.000000000     0.000000000     0.000000000
 C        1.865334358     0.000000000     0.000000000
 C       -0.679264842     1.710712640     0.000000000
 C        0.123603846     2.805842846     0.334362943
 C       -0.401705235     4.097953314     0.331051834
 C       -1.740238614     4.324462966     0.000067976
 C       -2.544489119     3.225460559    -0.330498989
 C       -2.022827628     1.934837736    -0.329710574
 C       -2.333062445     5.657605772    -0.016822914
 C       -1.674872299     6.791808987     0.276971217
 C       -2.267727157     8.124926768     0.260069469
 C       -3.606365777     8.350142293    -0.071078433
 C       -4.132574889     9.641888754    -0.074666414
 C       -3.333062500    10.736135825     0.267770221
 C       -1.989830632    10.512736443     0.602505952
 C       -1.464534486     9.223965021     0.593225650
Si       -3.985026294    12.459309569     0.276853411
 C       -3.227596193    13.430429336     1.630814712
 C       -2.820970576    12.876419315     2.780836222
 C       -2.210767493    13.603289649     3.893452125
 C       -1.836459701    12.882789509     5.034911785
 C       -1.253385160    13.511378895     6.124020016
 C       -0.930835586    14.883666059     6.068119950
 C       -1.284914482    15.604292591     4.907567562
 C       -1.932280740    14.972926755     3.855015941
 N       -0.340230291    15.536595443     7.160870804
 C        0.247237174    14.721263480     8.236797253
 C        0.402142067    16.772798660     6.866532812
 C        1.376412522    13.764353831     7.811300451
 C        2.772304781    14.416090569     7.826208199
 N        3.613785120    14.094599020     6.650019716
 C        3.118405416    14.726918177     5.461900420
 C        3.481851685    16.072567136     5.287357589
 C        3.047964742    16.764102946     4.167104147
 C        2.244849452    16.137254516     3.202778519
 C        1.897177403    14.795513591     3.379430236
 C        2.338025959    14.087009364     4.493014639
 C        3.874661291    12.650997839     6.506994487
 C        1.817401622    16.919584409     2.040364670
 C        1.051947738    16.439849274     1.052782911
Si        0.504328128    17.392854339    -0.407770276
 C       -1.311433694    17.176831176    -0.587667819
 C       -2.106785121    17.152043947     0.566015958
 C       -3.485305694    16.990123615     0.466212799
 C       -4.102298419    16.881641255    -0.787246004
 C       -3.307051635    16.918499177    -1.935847814
 C       -1.923268682    17.060704240    -1.838650531
 C       -5.549593744    16.713160080    -0.841092918
 C       -6.264048885    16.577809473    -1.971061210
 C       -7.712341765    16.409581810    -2.017128956
 C       -8.502237179    16.373501887    -0.865049609
 C       -9.884442330    16.210883015    -0.952737921
 C      -10.505354955    16.065614336    -2.197085820
 C       -9.714644814    16.096098178    -3.353940617
 C       -8.336218421    16.267995487    -3.263574838
Si      -12.328612450    15.849970526    -2.331681723
 C      -13.101819346    15.496415970    -0.671552012
 C      -13.108342274    17.432764183    -3.044445979
 C      -12.664061255    14.411750029    -3.532721500
 C        0.874863298    19.247210331    -0.215013628
 C        1.426653040    16.738271906    -1.935414038
 C       -3.610607139    13.316304688    -1.372365390
 C       -5.871411558    12.390975160     0.533646357
 C       -0.653128739    -0.906296236    -1.541753569
 C       -0.617955717    -0.921416755     1.546695582
 H        1.177735017     2.691763403     0.601618864
 H        0.245142056     4.933768841     0.591366509
 H       -3.589830543     3.379641878    -0.591288499
 H       -2.698352199     1.117297947    -0.596482859
 H       -3.390764975     5.684360762    -0.294438395
 H       -0.616950602     6.765224729     0.554150959
 H       -4.251778023     7.514309622    -0.333599860
 H       -5.184326151     9.755312023    -0.351107331
 H       -1.316785120    11.333069574     0.876821326
 H       -0.418653919     9.070504776     0.851200364
 H       -3.136434558    14.510828745     1.442851369
 H       -2.914135529    11.797914344     2.979618355
 H       -2.030255525    11.810267330     5.084391605
 H       -1.043509377    12.927568054     7.013941720
 H       -1.059275691    16.663088050     4.827533350
 H       -2.211213362    15.556718631     2.975812053
 H        0.927877801    17.136190081     7.762994243
 H       -0.314417731    17.561211192     6.571284899
 H        1.143821575    16.647131299     6.056701585
 H        4.445504056    12.312942683     7.389176250
 H        4.511097712    12.485738946     5.619958786
 H        2.975986603    12.023040601     6.414204783
 H        4.115544751    16.554613001     6.029826632
 H        3.340480376    17.805303985     4.035251799
 H        1.266817247    14.290218650     2.644828600
 H        2.056003111    13.043558437     4.608993403
 H        2.191879243    17.951398599     2.056374591
 H        0.693005853    15.395958852     1.061660895
 H       -1.674820166    17.247344119     1.568604409
 H       -4.089935637    16.956083769     1.371510187
 H       -3.763473669    16.833663978    -2.919975424
 H       -1.351285197    17.075707729    -2.769824669
 H       -6.044932477    16.710246083     0.135380466
 H       -5.771627314    16.585318045    -2.947513823
 H       -8.042885421    16.477325858     0.116827672
 H      -10.450630597    16.196293470    -0.017237440
 H      -10.145289080    15.986261608    -4.353215644
 H       -7.739339919    16.290800217    -4.173352596
 H        0.599639423    15.403612211     9.042242894
 H       -0.586834297    14.133870338     8.693370971
 H        1.371874778    12.875922433     8.468186071
 H        1.159398877    13.374996395     6.793992655
 H        2.688912194    15.523926767     7.885103585
 H        3.337666731    14.100178773     8.730409116
 H        2.263120450    -1.029438423    -0.047407245
 H        2.275717973     0.473447034     0.908996644
 H        2.260428632     0.549133125    -0.874048505
 H      -14.189529715    15.328263014    -0.767071171
 H      -12.955904619    16.332488645     0.034761750
 H      -12.665215996    14.588993143    -0.215950099
 H      -14.222230736    17.251590717    -3.038747276
 C      -12.821869229    18.672707436    -2.177539154
 C      -12.683154344    17.735401439    -4.492346778
 H      -12.214593562    14.722835765    -4.520503390
 C      -11.976881963    13.105943688    -3.093639991
 C      -14.161164026    14.138909311    -3.761467289
 H        1.981821280    19.325368518    -0.010177608
 C        0.568561758    20.057375289    -1.487187475
 C        0.122006675    19.882361274     0.968614083
 H        1.016709178    17.311876495    -2.816498028
 C        2.944057816    16.988738292    -1.871552221
 C        1.180045026    15.239784420    -2.182964116
 H       -3.978843413    14.379722306    -1.251988672
 C       -2.102547773    13.368347271    -1.673157735
 C       -4.344631292    12.695808031    -2.572609931
 H       -6.272849258    11.761687008    -0.312803670
 C       -6.252645597    11.711899753     1.861987688
 C       -6.558821586    13.763451283     0.464196965
 H       -1.777805664    -0.911710942    -1.444479194
 C       -0.297498774    -0.175861399    -2.849359396
 C       -0.182788866    -2.368434439    -1.640174147
 H       -0.130934343    -1.938535258     1.511737654
 C       -0.190005347    -0.231868952     2.855219710
 C       -2.143576438    -1.124025531     1.572325703
 H      -13.170827473    18.571591098    -1.141789716
 H      -13.340168847    19.549533865    -2.591632939
 H      -11.754323516    18.933798784    -2.144863239
 H      -12.919097294    16.926351276    -5.195042964
 H      -11.611363457    17.960910737    -4.583599556
 H      -13.214691536    18.625054141    -4.860860229
 H      -10.890482737    13.210468427    -2.960476116
 H      -12.118768069    12.329639136    -3.858979004
 H      -12.386915387    12.697897062    -2.160296726
 H      -14.708632582    15.009928433    -4.144186625
 H      -14.676467043    13.791166176    -2.856299956
 H      -14.287206242    13.343685708    -4.510670011
 H        1.145323055    19.730904819    -2.362116182
 H        0.824018538    21.115501963    -1.330045606
 H       -0.495656888    20.038627391    -1.761879926
 H        0.311949707    19.384805176     1.929478989
 H       -0.966960824    19.903589678     0.816772555
 H        0.433691511    20.928674731     1.095120461
 H        3.208623034    18.050065684    -1.781985955
 H        3.423306287    16.631045386    -2.794271538
 H        3.432364310    16.452444867    -1.045197239
 H        0.115928351    14.980988198    -2.278163520
 H        1.608946477    14.600625419    -1.398128419
 H        1.656086756    14.930121963    -3.124271793
 H       -1.520873102    13.859727245    -0.879401855
 H       -1.925841983    13.949872186    -2.589436727
 H       -1.665400882    12.375446071    -1.845341713
 H       -5.437865911    12.722491065    -2.471854460
 H       -4.050060330    11.655207656    -2.765085272
 H       -4.108321586    13.257079260    -3.487915973
 H       -5.853320282    10.693811309     1.964423378
 H       -7.345058565    11.623448406     1.940411697
 H       -5.924514924    12.284516885     2.741652680
 H       -6.413226841    14.268644833    -0.501752189
 H       -6.230697665    14.446552938     1.258535156
 H       -7.645999362    13.647568978     0.581956756
 H       -0.652386359     0.864502316    -2.875371860
 H       -0.767900937    -0.682002327    -3.704288394
 H        0.781255628    -0.162105865    -3.053810704
 H       -0.465535670    -2.975666140    -0.770637219
 H        0.903098553    -2.461031593    -1.774186198
 H       -0.642016854    -2.851963056    -2.514665298
 H        0.897336504    -0.120898387     2.954876681
 H       -0.518332709    -0.827039694     3.719362559
 H       -0.639267009     0.764051561     2.979417972
 H       -2.522618203    -1.689952986     0.712047436
 H       -2.698979303    -0.176836605     1.624708894
 H       -2.431245703    -1.696679505     2.466080853

