187   

Si        0.000000000     0.000000000     0.000000000
 C        1.865423570     0.000000000     0.000000000
 C       -0.654852599     1.721146292     0.000000000
 C        0.029289022     2.727812322     0.691316667
 C       -0.453082325     4.035763640     0.701209453
 C       -1.631740866     4.367825268     0.027175124
 C       -2.319264931     3.357737652    -0.657772180
 C       -1.840534059     2.049840072    -0.668323338
 C       -2.173249237     5.722760806     0.010642323
 C       -1.612687232     6.777338928     0.626814690
 C       -2.152267724     8.132960631     0.611684078
 C       -1.461213494     9.139703494     1.299781160
 C       -1.936845595    10.447929956     1.314057854
 C       -3.118255800    10.780705885     0.638581518
 C       -3.808414057     9.778680453    -0.050723980
 C       -3.327572747     8.469546660    -0.064905340
Si       -3.743841888    12.510795987     0.659654175
 C       -5.458431205    12.566379263     0.029133265
 C       -5.916716514    13.396060435    -0.917255612
 C       -7.299024437    13.412050900    -1.398070294
 C       -7.658654156    14.329837591    -2.395341368
 C       -8.952833632    14.386883935    -2.885668491
 C       -9.932152519    13.479005637    -2.427289756
 C       -9.570728218    12.555074681    -1.427699449
 C       -8.281262616    12.544874762    -0.912050193
 N      -11.243046123    13.544935879    -2.931054571
 C      -11.405921635    13.989559045    -4.327162181
 C      -12.151069156    12.441905789    -2.571505595
 C      -10.725177956    13.055080379    -5.343149477
 C      -11.214174408    13.274805793    -6.784292546
 N      -12.663653052    13.069462811    -7.016602190
 C      -13.257096658    12.054076574    -6.229307747
 C      -12.696061252    10.761219153    -6.291506934
 C      -13.237116553     9.730654271    -5.541977640
 C      -14.364112683     9.940451035    -4.731954686
 C      -14.931137786    11.215815129    -4.693877061
 C      -14.397881992    12.262132504    -5.438970382
 C      -13.416380275    14.329079987    -7.135880535
 C      -14.897929814     8.817113743    -3.958481940
 C      -15.966004260     8.906865510    -3.156035620
Si      -16.686157525     7.551795145    -2.163701058
 C      -16.907766667     8.139869597    -0.435131897
 C      -16.069149849     9.140393759     0.069271637
 C      -16.222684716     9.598235361     1.376961767
 C      -17.206563266     9.059725749     2.211196138
 C      -18.039584377     8.053229253     1.705121725
 C      -17.892717298     7.596433410     0.397650084
 C      -17.402866383     9.508271648     3.585816983
 C      -16.674611964    10.462485680     4.190112139
 C      -16.869944593    10.911857154     5.564566588
 C      -17.855537594    10.378979999     6.399194249
 C      -18.007120195    10.838620327     7.707439679
 C      -17.168974150    11.837775792     8.212036033
 C      -16.178453128    12.372838620     7.377115122
 C      -16.033602565    11.916483308     6.070098635
Si      -17.355403117    12.455748734     9.936136373
 C      -18.488576842    11.363989048    10.938027534
 C      -15.628101421    12.520503413    10.733516400
 C      -18.076505594    14.217146270     9.906351842
 C      -18.367668419     7.076033824    -2.913919284
 C      -15.562659692     6.018537712    -2.157401166
 C       -3.734116163    13.146175745     2.453640282
 C       -2.600919708    13.611498743    -0.389408366
 C       -0.646024625    -0.931408267    -1.529553945
 C       -0.636593361    -0.896581364     1.553491694
 H        0.956589108     2.529631863     1.236417193
 H        0.100078625     4.800985150     1.242827911
 H       -3.240110162     3.593836771    -1.187737060
 H       -2.422818916     1.304528411    -1.216810589
 H       -3.101778221     5.837779455    -0.556057058
 H       -0.684002904     6.661451200     1.193403062
 H       -0.542557009     8.898500774     1.830876942
 H       -1.357384435    11.190521870     1.869667942
 H       -4.733553864     9.983304264    -0.599379612
 H       -3.880921191     7.707326319    -0.610202412
 H       -6.127664596    11.839794343     0.519152890
 H       -5.278717433    14.136875366    -1.417282769
 H       -6.912012657    15.022346680    -2.785191627
 H       -9.206018696    15.136044384    -3.629691985
 H      -10.294625284    11.844821056    -1.040660134
 H       -8.033369882    11.830345555    -0.125211183
 H      -13.128239710    12.572229416    -3.070694854
 H      -12.338302284    12.468506471    -1.482851309
 H      -11.767625923    11.446000272    -2.848709815
 H      -12.963680262    14.937634352    -7.939034069
 H      -13.448182180    14.932917576    -6.216010964
 H      -14.451526341    14.108862881    -7.453583760
 H      -11.839790312    10.578916911    -6.937056682
 H      -12.786286117     8.738998205    -5.593034809
 H      -15.811558079    11.403326930    -4.076597986
 H      -14.867242836    13.239600283    -5.385185837
 H      -14.334508242     7.885925238    -4.099245845
 H      -16.515421117     9.857612822    -3.045314343
 H      -15.278688053     9.595771196    -0.536854942
 H      -15.563159392    10.382007341     1.745572348
 H      -18.811701065     7.621100211     2.338760272
 H      -18.571565237     6.810144925     0.056933957
 H      -18.211698742     9.002512509     4.121142240
 H      -15.865418117    10.968019259     3.654664074
 H      -18.517877883     9.597131009     6.032327935
 H      -18.797378756    10.384828164     8.311786323
 H      -15.493691969    13.154909495     7.717668513
 H      -15.259610650    12.345361805     5.436215098
 H      -12.498655034    14.062197724    -4.532376949
 H      -11.012488457    15.025993569    -4.420755669
 H       -9.626537422    13.192194520    -5.302118844
 H      -10.890855391    11.999995642    -5.043760889
 H      -10.928004388    14.291853628    -7.129298319
 H      -10.685123448    12.559108815    -7.460008100
 H        2.264217330    -1.028422168    -0.056830955
 H        2.277834581     0.467694460     0.910764177
 H        2.257812252     0.558170410    -0.869850373
 H      -18.561482774    11.717900019    11.981974932
 H      -18.114868772    10.324300538    10.965990618
 H      -19.510955270    11.344056251    10.521782154
 H      -15.021417847    13.230638209    10.099367028
 C      -15.636395919    13.063992370    12.173326945
 C      -14.920530685    11.153450712    10.716977133
 H      -18.223873173    14.503405215    10.987849406
 C      -17.143716251    15.257744139     9.261443132
 C      -19.445487525    14.281085805     9.204470760
 H      -18.764865542     6.233417929    -2.276765009
 C      -19.384693679     8.230156790    -2.863625342
 C      -18.258134391     6.566585955    -4.361714673
 H      -15.379902763     5.761831258    -3.241017209
 C      -14.201381683     6.290102708    -1.491072835
 C      -16.209040185     4.796493624    -1.480906176
 H       -2.657450185    13.110971981     2.789215183
 C       -4.227263428    14.598007852     2.581116255
 C       -4.555087279    12.251247644     3.399071653
 H       -3.100791556    14.622668364    -0.429768598
 C       -1.197914514    13.801453780     0.214147770
 C       -2.450580547    13.090929649    -1.830788183
 H       -1.772322066    -0.898883028    -1.460250226
 C       -0.232617658    -0.258702140    -2.851251153
 C       -0.222640229    -2.410993057    -1.570394231
 H       -0.181295087    -1.928289616     1.522327304
 C       -0.186250603    -0.216011966     2.859045974
 C       -2.168068398    -1.049228808     1.578299602
 H      -16.064624549    14.071318453    12.255593245
 H      -14.606701868    13.136190689    12.552982529
 H      -16.176042676    12.412830545    12.873665874
 H      -14.824377612    10.727137436     9.708064856
 H      -15.418473945    10.404138822    11.346417714
 H      -13.897238661    11.253656364    11.106242197
 H      -16.163937848    15.328591002     9.750486074
 H      -17.593693718    16.258893564     9.331545267
 H      -16.974963350    15.073488356     8.191105674
 H      -20.199464335    13.624085492     9.656710534
 H      -19.388545256    14.034593961     8.134398976
 H      -19.852069884    15.300899587     9.263694419
 H      -19.544869588     8.627507586    -1.851430075
 H      -20.366601144     7.882456433    -3.215211105
 H      -19.107254142     9.073261701    -3.511176245
 H      -17.615923674     5.682442802    -4.465066054
 H      -17.885918543     7.331445628    -5.058351895
 H      -19.249941698     6.270583671    -4.732607123
 H      -13.649051659     7.125826813    -1.941692638
 H      -13.553972335     5.406517539    -1.582283422
 H      -14.288686428     6.496736951    -0.414393418
 H      -17.137980247     4.470417214    -1.965801312
 H      -16.425322754     4.960742101    -0.415669506
 H      -15.524001446     3.937105439    -1.523657373
 H       -3.633504854    15.312595496     1.996792781
 H       -4.162390610    14.927376379     3.627923177
 H       -5.279312838    14.719719185     2.285310048
 H       -4.231456633    11.200785024     3.394596477
 H       -5.631196360    12.268704476     3.178313016
 H       -4.447382660    12.600190231     4.435925808
 H       -1.210592138    14.239309848     1.220249415
 H       -0.611065402    14.489758928    -0.411474130
 H       -0.622405009    12.866401169     0.259696976
 H       -3.407610184    12.966849495    -2.355908908
 H       -1.922876287    12.127512365    -1.882279936
 H       -1.859067793    13.798289646    -2.428553266
 H       -0.538837913     0.794744972    -2.919507880
 H       -0.705649856    -0.772323956    -3.700243490
 H        0.850149318    -0.298697207    -3.031016881
 H       -0.551031436    -2.981724337    -0.692139573
 H        0.862832925    -2.543866157    -1.669023749
 H       -0.672745153    -2.905843619    -2.443279070
 H        0.904186691    -0.142846998     2.958897690
 H       -0.535364070    -0.796224330     3.725358220
 H       -0.602512206     0.794650836     2.979067272
 H       -2.563334654    -1.615208989     0.725242897
 H       -2.693273995    -0.083948356     1.612539755
 H       -2.477045929    -1.598095253     2.479718426

