187   

Si        0.000000000     0.000000000     0.000000000
 C        1.865201636     0.000000000     0.000000000
 C       -0.676453020     1.712259704     0.000000000
 C        0.127678479     2.805178341     0.338688069
 C       -0.394731838     4.098414846     0.335537018
 C       -1.731479852     4.328204161    -0.000077459
 C       -2.537152410     3.231638396    -0.334966413
 C       -2.018408302     1.939813079    -0.333856989
 C       -2.320896199     5.662943604    -0.016862117
 C       -1.660598168     6.794735384     0.281380073
 C       -2.249631302     8.129578415     0.264709653
 C       -3.586603878     8.359306088    -0.070971866
 C       -4.108837464     9.652423047    -0.074088031
 C       -3.306248589    10.743471737     0.273581579
 C       -1.965683555    10.516345408     0.612860764
 C       -1.444544922     9.225515157     0.603094171
Si       -3.966137679    12.459738166     0.278810592
 C       -3.204616747    13.478949062     1.593351202
 C       -2.760516259    12.988828655     2.758281625
 C       -2.150399351    13.801354207     3.812954730
 C       -1.724829793    13.165986756     4.990135011
 C       -1.141794984    13.888191094     6.017919858
 C       -0.996385714    15.286077207     5.907720401
 C       -1.415278849    15.924010284     4.731113681
 C       -1.965492429    15.180277958     3.692212874
 N       -0.390863164    15.963111555     6.997126641
 C       -1.123716028    15.869984865     8.276145296
 C        0.129936118    17.308462041     6.711247339
 C       -2.224279105    16.919015925     8.513860923
 C       -3.433946159    16.805475321     7.567450527
 N       -4.386997082    15.729639079     7.881291790
 C       -4.887407471    15.653654791     9.186527528
 C       -5.121169404    16.841903282     9.915099907
 C       -5.615797660    16.785676023    11.207087371
 C       -5.939933550    15.560620450    11.808511211
 C       -5.735931309    14.388448621    11.075611387
 C       -5.226054687    14.423710375     9.784544575
 C       -4.147281590    14.470165469     7.166212066
 C       -6.458916342    15.561255762    13.176420727
 C       -6.802364066    14.457028776    13.853678352
Si       -7.450491507    14.462882754    15.563025471
 C       -8.386684950    16.002457841    15.934679409
 C       -9.115861233    16.631673837    14.918782101
 C       -9.831848434    17.798751177    15.179271623
 C       -9.846686460    18.356605373    16.460975751
 C       -9.123499803    17.720383444    17.478147482
 C       -8.403799287    16.556000847    17.220293564
 C      -10.582087833    19.576275576    16.778625442
 C      -11.312041914    20.279658602    15.896430175
 C      -12.048391323    21.499416594    16.210984753
 C      -12.063500342    22.063205899    17.489314535
 C      -12.781641840    23.231284306    17.745291925
 C      -13.495570243    23.865597953    16.723892312
 C      -13.481362926    23.302563448    15.440511766
 C      -12.768920835    22.133321086    15.189623116
Si      -14.448378643    25.407633941    17.044785486
 C      -14.009261739    26.155023667    18.696603003
 C      -14.074213077    26.641057077    15.643854097
 C      -16.311522269    25.018226316    17.026285222
 C       -8.618132030    12.974667718    15.765554598
 C       -5.996499401    14.267549437    16.774568972
 C       -3.591641564    13.265375453    -1.402699148
 C       -5.849798976    12.443370439     0.545160072
 C       -0.653938635    -0.905610170    -1.541597718
 C       -0.619139929    -0.920093842     1.546750284
 H        1.180711168     2.688331390     0.609472422
 H        0.253252968     4.932241329     0.599631601
 H       -3.581209991     3.388479461    -0.599286717
 H       -2.694891614     1.124061795    -0.603965167
 H       -3.377533037     5.692726500    -0.298518944
 H       -0.603762420     6.764701798     0.562665329
 H       -4.233659782     7.525734695    -0.337403049
 H       -5.159618946     9.769422820    -0.352689396
 H       -1.291383469    11.333417946     0.891368041
 H       -0.399779149     9.068596664     0.865252879
 H       -3.149102686    14.554354909     1.366113446
 H       -2.813269711    11.920209599     3.011642983
 H       -1.840662143    12.086017145     5.092541712
 H       -0.778278990    13.380116303     6.909169140
 H       -1.307804809    16.998283028     4.615690205
 H       -2.270367701    15.693047488     2.779122557
 H        0.717413644    17.654642431     7.579812507
 H       -0.642812087    18.061048689     6.490397329
 H        0.822585313    17.251690437     5.852296872
 H       -3.815444187    14.678171507     6.131621445
 H       -5.096568590    13.908855172     7.087907686
 H       -3.388228814    13.828317456     7.642293594
 H       -4.915036237    17.807070698     9.462689244
 H       -5.770283392    17.713937218    11.759197041
 H       -5.980592059    13.422350808    11.519573768
 H       -5.078979478    13.489569771     9.252892391
 H       -6.550062380    16.570827063    13.602709866
 H       -6.693900976    13.456981200    13.408219963
 H       -9.145211823    16.238300234    13.896553366
 H      -10.385170396    18.272904939    14.370615172
 H       -9.122551769    18.137677495    18.483102625
 H       -7.859597340    16.103992518    18.053763385
 H      -10.503116674    19.900691019    17.820222691
 H      -11.390847470    19.954115530    14.854843264
 H      -11.512538885    21.591238613    18.300737749
 H      -12.756960679    23.623899488    18.765575318
 H      -14.020492923    23.754561348    14.603140157
 H      -12.771603000    21.709894289    14.186970193
 H       -1.556099749    14.849254443     8.375076492
 H       -0.356985624    15.959129489     9.083519497
 H       -2.567378813    16.830930011     9.566885398
 H       -1.799662979    17.937206906     8.434444468
 H       -4.003727794    17.766203208     7.581272103
 H       -3.087602505    16.681158722     6.515918395
 H        2.263045429    -1.029511838    -0.047428716
 H        2.275768594     0.473219078     0.909075000
 H        2.260478539     0.549007724    -0.874079751
 H      -14.553758921    27.101794000    18.862268071
 H      -12.928688060    26.379288578    18.755311599
 H      -14.259111459    25.477404918    19.531687007
 H      -14.408300506    26.136627205    14.690770378
 C      -14.845330256    27.966926709    15.770293629
 C      -12.570841740    26.945329982    15.512658971
 H      -16.827487035    25.986743350    17.288910871
 C      -16.833124342    24.558089085    15.653308328
 C      -16.704667855    23.966697769    18.080096371
 H       -7.998576805    12.059194863    15.540501182
 C       -9.177931689    12.834779577    17.191873929
 C       -9.791026920    13.014786687    14.769554098
 H       -6.451074244    14.225984837    17.806197807
 C       -5.195771065    12.971248362    16.556614617
 C       -5.030655751    15.465174622    16.724262668
 H       -4.022088404    14.307040007    -1.353344997
 C       -2.080179022    13.384676379    -1.668075654
 C       -4.250516777    12.530814227    -2.582994535
 H       -6.281455933    11.843852819    -0.307598385
 C       -6.246193636    11.756503664     1.864403611
 C       -6.480447235    13.846718083     0.505117623
 H       -1.778568182    -0.911017586    -1.443865708
 C       -0.298522142    -0.175146538    -2.849230226
 C       -0.183722084    -2.367775457    -1.640169556
 H       -0.133074756    -1.937786088     1.512162869
 C       -0.190833326    -0.230639837     2.855170143
 C       -2.144954723    -1.121228300     1.571911296
 H      -15.934696729    27.835507786    15.799921898
 H      -14.636858932    28.606355306    14.900108228
 H      -14.554370964    28.548862040    16.654873926
 H      -11.957446669    26.044920048    15.364594434
 H      -12.164370168    27.483396462    16.379256413
 H      -12.390745896    27.586364674    14.637930785
 H      -16.662048576    25.289718073    14.853624955
 H      -17.921030254    24.402823612    15.698296971
 H      -16.401246454    23.599522003    15.332648039
 H      -16.439893352    24.255603792    19.105332210
 H      -16.258200368    22.980623666    17.886555926
 H      -17.793911373    23.817192417    18.074945568
 H       -8.399829161    12.705489408    17.954832210
 H       -9.822544774    11.946354723    17.257559390
 H       -9.802771532    13.688213331    17.492082794
 H       -9.470710299    13.060440235    13.719569042
 H      -10.471875907    13.860116421    14.945618409
 H      -10.400038083    12.105046362    14.867001614
 H       -5.802289104    12.062227124    16.656860453
 H       -4.397969080    12.891662054    17.309047489
 H       -4.698009348    12.936562262    15.577336315
 H       -5.517969597    16.428276280    16.930278311
 H       -4.515530918    15.557061200    15.756930166
 H       -4.244268541    15.348946252    17.482986211
 H       -1.543771354    13.950519479    -0.894295706
 H       -1.904366255    13.914628221    -2.615079996
 H       -1.585734845    12.407455110    -1.767916351
 H       -5.345009879    12.488228536    -2.514019508
 H       -3.882704175    11.501960636    -2.706680488
 H       -4.022868840    13.051378454    -3.524650286
 H       -5.881187727    10.723358386     1.946745091
 H       -7.340888346    11.703243534     1.948188154
 H       -5.895109405    12.302363321     2.752396668
 H       -6.308075330    14.375799496    -0.440770084
 H       -6.132953250    14.495294605     1.321544651
 H       -7.571789759    13.770837448     0.618284897
 H       -0.653816535     0.864982772    -2.875652371
 H       -0.768510084    -0.681758041    -3.704165571
 H        0.780283151    -0.160997550    -3.053636745
 H       -0.465770098    -2.975005198    -0.770366945
 H        0.902059820    -2.460530552    -1.775151062
 H       -0.643731815    -2.851463612    -2.514212714
 H        0.896605287    -0.120306110     2.954957236
 H       -0.519424774    -0.825719034     3.719351420
 H       -0.639559693     0.765428805     2.979553263
 H       -2.524121398    -1.688089323     0.712262224
 H       -2.699730915    -0.173671289     1.622889686
 H       -2.433492734    -1.692576466     2.466300824

