187   

Si        0.000000000     0.000000000     0.000000000
 C        1.865555129     0.000000000     0.000000000
 C       -0.674670137     1.712854961     0.000000000
 C        0.147185171     2.812617876     0.265911690
 C       -0.375264831     4.105844262     0.263143362
 C       -1.729509375     4.329002744     0.001399916
 C       -2.552456993     3.225614106    -0.261597504
 C       -2.033471642     1.933861547    -0.262482248
 C       -2.318989773     5.663783148    -0.011841726
 C       -1.641478947     6.800853539     0.220696735
 C       -2.228451338     8.136595647     0.208051697
 C       -3.582468120     8.362921268    -0.053387006
 C       -4.101259319     9.657444552    -0.055293611
 C       -3.277478105    10.753834443     0.218788936
 C       -1.919586272    10.529901873     0.482632464
 C       -1.402363445     9.237526656     0.471440334
Si       -3.935240209    12.471991183     0.222981585
 C       -3.061982275    13.539151548     1.422984222
 C       -2.510624989    13.101100421     2.563056194
 C       -1.812378814    13.959898373     3.520668271
 C       -1.275675203    13.384687764     4.681620301
 C       -0.605825192    14.153895932     5.619090121
 C       -0.400283640    15.532908750     5.397550883
 C       -0.935933716    16.110039817     4.230595343
 C       -1.647726833    15.333606909     3.325336374
 N        0.282151864    16.302015963     6.359117846
 C        1.375392267    15.634239960     7.090549484
 C        0.611733457    17.688699376     5.985347657
 C        2.494348350    15.117789943     6.168082895
 C        3.827293429    14.896589893     6.901448003
 N        4.426370103    16.094564105     7.534448191
 C        4.237401942    17.309842786     6.839150960
 C        4.601386278    17.356587847     5.476189502
 C        4.436144055    18.523340155     4.750419022
 C        3.941337173    19.688783319     5.357333797
 C        3.608513014    19.645785790     6.712231358
 C        3.760192129    18.478479949     7.453543457
 C        4.247146563    16.134937641     8.994658201
 C        3.786905222    20.894448200     4.541435784
 C        3.326207071    22.063419420     5.006371561
Si        3.135377408    23.566612191     3.982214624
 C        4.368436169    23.629523006     2.619455347
 C        5.649666970    23.097819978     2.817555320
 C        6.595313112    23.137100776     1.796679263
 C        6.290643258    23.718593302     0.558718588
 C        5.014709958    24.255655149     0.367303666
 C        4.063587676    24.214347098     1.386356812
 C        7.315413816    23.735480558    -0.479853398
 C        7.152510019    24.256485474    -1.707786481
 C        8.177709685    24.273087410    -2.746015582
 C        9.453306540    23.736060274    -2.554366765
 C       10.403479642    23.773341548    -3.574855344
 C       10.099127203    24.355015977    -4.809487864
 C        8.820384436    24.894803826    -5.004007529
 C        7.872455231    24.851523985    -3.985504698
Si       11.341567247    24.412454827    -6.166731289
 C       13.047160025    23.968583903    -5.555239785
 C       10.845832877    23.184714079    -7.534250952
 C       11.341380817    26.168997779    -6.900061674
 C        1.368641057    23.592896571     3.276460548
 C        3.374296228    25.089642803     5.095799141
 C       -3.706212875    13.214286516    -1.513869178
 C       -5.790845378    12.464613923     0.643109696
 C       -0.658198978    -0.898843196    -1.543476190
 C       -0.612532079    -0.925244975     1.546436776
 H        1.214030832     2.701181407     0.478324988
 H        0.286734225     4.944962710     0.469152612
 H       -3.610103317     3.377411389    -0.468442511
 H       -2.723506082     1.112830693    -0.476548697
 H       -3.390256176     5.688986475    -0.231329878
 H       -0.569893937     6.774739731     0.439847034
 H       -4.245704210     7.525634647    -0.261407466
 H       -5.166576335     9.771656065    -0.273195923
 H       -1.228458533    11.351309871     0.701079565
 H       -0.344249160     9.083238059     0.674092000
 H       -3.031978351    14.604430060     1.148061420
 H       -2.535127724    12.044943744     2.867161708
 H       -1.398467610    12.315536987     4.859504057
 H       -0.237582073    13.685265328     6.526781396
 H       -0.806350998    17.167855986     4.023840534
 H       -2.066837467    15.809717413     2.437774731
 H        1.163783970    18.181964905     6.805078991
 H       -0.324198332    18.256749334     5.839289509
 H        1.230276533    17.767939446     5.075614825
 H        4.618449849    15.188810303     9.426992868
 H        3.206987143    16.284490370     9.323458582
 H        4.873489443    16.941308884     9.417678339
 H        5.017486214    16.471198294     5.000999526
 H        4.708693082    18.539562983     3.693882674
 H        3.226494205    20.539337644     7.207954420
 H        3.489066797    18.483620454     8.504262854
 H        4.097547407    20.751803685     3.496232307
 H        3.013875065    22.179852599     6.054991692
 H        5.945347889    22.635111375     3.765343111
 H        7.583286442    22.712894961     1.966521575
 H        4.752273562    24.713618821    -0.584500531
 H        3.083408687    24.651103926     1.176876049
 H        8.267012437    23.279747000    -0.190500371
 H        6.201048239    24.712085888    -1.997345385
 H        9.716790782    23.280627367    -1.601529663
 H       11.383894716    23.336353418    -3.365721083
 H        8.526279414    25.362576135    -5.947876089
 H        6.884227278    25.274390365    -4.156015739
 H        1.781009141    16.360161886     7.831252486
 H        0.944258195    14.801682201     7.689554709
 H        2.177634038    14.171516856     5.686926957
 H        2.637142871    15.827062902     5.327075961
 H        3.708825966    14.098648058     7.666220314
 H        4.583936340    14.515419157     6.172692233
 H        2.263662153    -1.029342291    -0.047258110
 H        2.274924220     0.473234294     0.909632844
 H        2.261331936     0.548837667    -0.873851259
 H       13.793185451    24.046472499    -6.366247340
 H       13.086455950    22.936231067    -5.165701709
 H       13.366952955    24.648080632    -4.744380494
 H       11.678930900    23.223631570    -8.294317289
 C       10.738397171    21.738426147    -7.017006815
 C        9.532606570    23.550786078    -8.248591081
 H       10.294519486    26.343063096    -7.285017734
 C       11.639718054    27.248582806    -5.843933605
 C       12.312335797    26.341078886    -8.081707456
 H        1.276591102    24.556540208     2.697184301
 C        1.110170947    22.423948997     2.308872055
 C        0.280499282    23.587836268     4.365035035
 H        2.591587866    25.012039259     5.904443524
 C        4.758215305    25.107210662     5.769407188
 C        3.162874871    26.419535014     4.351641720
 H       -4.132356935    14.257654226    -1.466272951
 C       -2.222628415    13.321291840    -1.910006534
 C       -4.461210530    12.438667016    -2.607237804
 H       -6.290944746    11.847048388    -0.157533340
 C       -6.078329120    11.808273727     2.005329463
 C       -6.422253953    13.868207285     0.622510592
 H       -1.783020667    -0.894251466    -1.447339759
 C       -0.294777373    -0.169692613    -2.849674351
 C       -0.199901456    -2.364650880    -1.642952676
 H       -0.112671458    -1.936387854     1.514025104
 C       -0.195438382    -0.228277740     2.854588559
 C       -2.135320395    -1.147834931     1.570852137
 H       11.665350523    21.367254961    -6.561273234
 H       10.511306856    21.056709493    -7.849169450
 H        9.930745825    21.606602409    -6.282571725
 H        9.550814930    24.544463712    -8.713696087
 H        8.658427000    23.504437622    -7.584016381
 H        9.336250844    22.836299795    -9.061376169
 H       10.945299789    27.225229044    -4.991831005
 H       11.544434775    28.248876077    -6.289895470
 H       12.659371293    27.185659262    -5.441335691
 H       12.115969298    25.648643863    -8.910445889
 H       13.365026015    26.225418144    -7.791411119
 H       12.218959162    27.354087679    -8.499575301
 H        1.812333207    22.392643624     1.464076038
 H        0.106174088    22.511527969     1.870487128
 H        1.146756988    21.442755382     2.804481870
 H        0.351479966    24.436750496     5.056890246
 H        0.278842773    22.665719216     4.963055799
 H       -0.714346351    23.654458139     3.901250117
 H        4.964202053    24.209807593     6.368527656
 H        4.831810994    25.961139019     6.457804780
 H        5.581741379    25.222052573     5.049646026
 H        2.158062246    26.524377595     3.923026112
 H        3.890190219    26.578203356     3.542333064
 H        3.289694559    27.263266146     5.045593005
 H       -1.623660725    13.912053903    -1.203362774
 H       -2.127478067    13.818266518    -2.885773421
 H       -1.737629842    12.340251875    -2.016907438
 H       -5.546031714    12.402372112    -2.445559768
 H       -4.105101034    11.404834088    -2.722521107
 H       -4.312737117    12.923193657    -3.583158285
 H       -5.709387690    10.775940320     2.079954818
 H       -7.162082862    11.761636897     2.181362910
 H       -5.652773276    12.371834091     2.848688229
 H       -6.327257102    14.375123132    -0.346052129
 H       -6.007509487    14.534121404     1.392500972
 H       -7.500354140    13.797881196     0.826873077
 H       -0.641740663     0.873322507    -2.875148182
 H       -0.767947078    -0.671224186    -3.705843094
 H        0.784324945    -0.164131978    -3.052607480
 H       -0.488622601    -2.970609011    -0.774467954
 H        0.885375249    -2.466080554    -1.775728892
 H       -0.661972758    -2.843450047    -2.518582394
 H        0.890188941    -0.102312884     2.955563881
 H       -0.516760030    -0.826681913     3.719143951
 H       -0.657976466     0.761760718     2.976967328
 H       -2.507477138    -1.712691687     0.706865197
 H       -2.702854424    -0.208472734     1.630592428
 H       -2.414994519    -1.730495663     2.460746215

