187   

Si        0.000000000     0.000000000     0.000000000
 C        1.865475250     0.000000000     0.000000000
 C       -0.679133535     1.710989306     0.000000000
 C        0.147017343     2.817825912     0.218507617
 C       -0.381050706     4.108873421     0.215810603
 C       -1.745202907     4.322338455     0.002394173
 C       -2.572394382     3.211939201    -0.213932728
 C       -2.047668137     1.922650078    -0.216467640
 C       -2.341718784     5.653934948    -0.009037930
 C       -1.663163072     6.798455772     0.179833433
 C       -2.261204541     8.129452277     0.168107189
 C       -1.435104348     9.241443509     0.379436917
 C       -1.961134814    10.530944560     0.376977488
 C       -3.331342085    10.735782672     0.177264903
 C       -4.159634588     9.627481595    -0.031916617
 C       -3.627209516     8.339121139    -0.041091677
Si       -4.052745967    12.427770922     0.169206700
 C       -5.812914562    12.315888909     0.647490245
 C       -6.843877251    12.864137925    -0.007639487
 C       -8.238869814    12.742874153     0.421081762
 C       -9.238704782    13.361033223    -0.346019121
 C      -10.571504506    13.275433830     0.017481676
 C      -10.950364756    12.532670434     1.156048383
 C       -9.952486875    11.919735211     1.929677379
 C       -8.614520466    12.047819881     1.572208606
 N      -12.324491130    12.477560588     1.483061190
 C      -13.218542705    12.026938341     0.390049108
 C      -12.668335938    11.892712809     2.789539867
 C      -12.633547721    10.974892539    -0.566860967
 C      -12.229164070     9.667584523     0.139530738
 N      -11.210717417     8.895831483    -0.603322763
 C      -11.542146233     8.583895215    -1.940533705
 C      -12.836537321     8.099449957    -2.225290575
 C      -13.195476843     7.783667016    -3.525155562
 C      -12.274327965     7.890164947    -4.577819739
 C      -10.984776390     8.342512313    -4.287858105
 C      -10.614246322     8.681001102    -2.991900490
 C       -9.841598997     9.385192964    -0.364783251
 C      -12.705608052     7.543798369    -5.933548743
 C      -11.913170406     7.607785298    -7.011387890
Si      -12.393844244     7.189420656    -8.723946194
 C      -11.905667178     8.554810524    -9.855980859
 C      -11.675714640     9.840112323    -9.353969702
 C      -11.305547304    10.877466435   -10.209082791
 C      -11.168411094    10.656900855   -11.582285195
 C      -11.405693778     9.369772202   -12.082986557
 C      -11.770765090     8.330151860   -11.231724332
 C      -10.783345672    11.711808263   -12.514073711
 C      -10.527912710    12.984375603   -12.165754453
 C      -10.142839664    14.039536499   -13.097168964
 C      -10.000723336    13.819302550   -14.469531003
 C       -9.630573412    14.857682604   -15.324169582
 C       -9.400462085    16.143004021   -14.823795499
 C       -9.543277037    16.366881938   -13.447575097
 C       -9.907556589    15.327292140   -12.596588570
Si       -8.911368563    17.524618000   -15.937643919
 C       -9.136421187    17.071651741   -17.733185332
 C       -9.974780388    19.042740405   -15.503830479
 C       -7.082174851    17.961667688   -15.643495147
 C      -11.492226708     5.592468360    -9.231976649
 C      -14.268418732     6.903486276    -8.865108688
 C       -3.146296642    13.531358908     1.424819906
 C       -3.850509476    13.177498970    -1.565960288
 C       -0.659826642    -0.897229861    -1.543593322
 C       -0.605585462    -0.928968605     1.547231411
 H        1.221491136     2.713838035     0.392809211
 H        0.284248242     4.953710810     0.384267193
 H       -3.637902433     3.356216510    -0.383444374
 H       -2.741111993     1.095761882    -0.394585397
 H       -3.420916147     5.669804974    -0.188502815
 H       -0.584171302     6.783005920     0.358903239
 H       -0.368887100     9.099145527     0.544679440
 H       -1.268423616    11.360804330     0.540633181
 H       -5.237846085     9.730288506    -0.195013479
 H       -4.290070719     7.492388124    -0.210556523
 H       -5.970782978    11.738150426     1.574287182
 H       -6.722002068    13.451048677    -0.927047127
 H       -8.963444691    13.925735343    -1.237545914
 H      -11.332622979    13.787458730    -0.566947091
 H      -10.208900906    11.344820231     2.813957118
 H       -7.853922041    11.579350599     2.199346501
 H      -13.723549525    12.129264240     3.016026606
 H      -12.062426878    12.372386448     3.579204816
 H      -12.535461379    10.801423426     2.851857766
 H       -9.675805722     9.506420760     0.720454765
 H       -9.621728044    10.354590600    -0.843463947
 H       -9.116214576     8.631351655    -0.718251292
 H      -13.557400952     7.973785944    -1.422293722
 H      -14.206954848     7.431189780    -3.727487981
 H      -10.248554516     8.435826072    -5.087993238
 H       -9.604442106     9.038002883    -2.811671346
 H      -13.754813315     7.225207660    -5.984881147
 H      -10.859700776     7.923311936    -6.922637260
 H      -11.773071953    10.073015927    -8.288421492
 H      -11.125982396    11.867727806    -9.794529876
 H      -11.304047666     9.177398297   -13.149226358
 H      -11.941027735     7.346769526   -11.678241808
 H      -10.710800018    11.395499425   -13.558747738
 H      -10.600796115    13.300753885   -11.121059728
 H      -10.177860360    12.828950190   -14.884908539
 H       -9.534268965    14.623835332   -16.388007570
 H       -9.377314845    17.350983724   -13.000134294
 H      -10.012167156    15.520248840   -11.530599950
 H      -14.170376441    11.652704877     0.824980475
 H      -13.484028223    12.941646563    -0.194322155
 H      -13.368870967    10.756195661    -1.365938996
 H      -11.755949540    11.394235699    -1.100388856
 H      -11.824881902     9.875996876     1.154968821
 H      -13.117488075     9.015794053     0.292674779
 H        2.263176657    -1.030054471    -0.034295826
 H        2.274407146     0.484320108     0.904043993
 H        2.262163486     0.537650677    -0.880301400
 H       -8.875623343    17.918244962   -18.393155310
 H      -10.186227187    16.798174971   -17.944106731
 H       -8.500429035    16.216709463   -18.022336759
 H       -9.749500952    19.279435685   -14.423255749
 C       -9.635482899    20.289461081   -16.339959957
 C      -11.483154840    18.757126735   -15.618115692
 H       -6.837381845    18.767175694   -16.394843740
 C       -6.797517481    18.519813099   -14.237632977
 C       -6.143015234    16.768645932   -15.899469730
 H      -11.839298481     5.359313360   -10.279936541
 C       -9.963150431     5.764326625    -9.265437980
 C      -11.843593838     4.392265836    -8.335545178
 H      -14.524258947     6.133155990    -8.081021421
 C      -15.080319018     8.178082703    -8.569934547
 C      -14.700864890     6.349249379   -10.234346155
 H       -2.073845621    13.581926739     1.077069400
 C       -3.698897255    14.966680758     1.472963184
 C       -3.157840767    12.940820679     2.846082315
 H       -4.393442579    14.166487188    -1.543562425
 C       -2.382888648    13.448017883    -1.942402953
 C       -4.488617635    12.303234340    -2.661078971
 H       -1.784675485    -0.890296321    -1.447267970
 C       -0.295511997    -0.168282418    -2.849642299
 C       -0.204199106    -2.363812830    -1.643569054
 H       -0.096576287    -1.935624354     1.514712170
 C       -0.193247577    -0.227446783     2.854483794
 C       -2.126022796    -1.166110405     1.574362232
 H       -8.586767730    20.600969552   -16.250198580
 H      -10.239673961    21.143816312   -16.001442905
 H       -9.856458513    20.162266495   -17.407991750
 H      -11.811645348    17.907040321   -15.003018002
 H      -11.806436151    18.563298972   -16.649417871
 H      -12.059182820    19.626990499   -15.271619231
 H       -7.375328092    19.422100165   -14.000902992
 H       -5.738304693    18.804103098   -14.154397850
 H       -6.979146875    17.783390043   -13.442156477
 H       -6.220607350    16.362420054   -16.916148290
 H       -6.305033403    15.938786349   -15.196502672
 H       -5.096027982    17.079261820   -15.772113615
 H       -9.630663455     6.579886420    -9.923045968
 H       -9.489637687     4.849276498    -9.648736709
 H       -9.530177353     5.941611246    -8.271252722
 H      -12.914750240     4.153267083    -8.327487265
 H      -11.525854131     4.530430463    -7.291882888
 H      -11.329887034     3.489673079    -8.696050149
 H      -14.860906932     8.622576586    -7.589561931
 H      -16.155377706     7.950293803    -8.572615281
 H      -14.929927719     8.962329067    -9.326028422
 H      -14.243020351     5.381913841   -10.477110155
 H      -14.488925470     7.040001200   -11.062598618
 H      -15.788133971     6.184377473   -10.246123027
 H       -3.642469270    15.487731902     0.508508360
 H       -3.116025556    15.570860616     2.183014445
 H       -4.742677940    15.012736954     1.815370219
 H       -2.742187437    11.924728014     2.900032205
 H       -4.162667280    12.912339399     3.289436644
 H       -2.543352490    13.559317528     3.515889474
 H       -1.882223303    14.152913207    -1.266477668
 H       -2.328815827    13.895504122    -2.945694594
 H       -1.775521139    12.532684844    -1.984385775
 H       -5.553799592    12.093751811    -2.493080744
 H       -3.979308249    11.336205760    -2.783744651
 H       -4.422835558    12.809894185    -3.634308799
 H       -0.641269849     0.875139666    -2.874923463
 H       -0.769692973    -0.668974602    -3.705809030
 H        0.783490275    -0.164242122    -3.052898251
 H       -0.494190270    -2.969553149    -0.775342565
 H        0.880876424    -2.467212523    -1.776277646
 H       -0.667114532    -2.841413468    -2.519431190
 H        0.891414890    -0.092614404     2.954595742
 H       -0.509161880    -0.827591477     3.719820697
 H       -0.663500396     0.758996002     2.976281179
 H       -2.496174611    -1.726156287     0.706388208
 H       -2.701892348    -0.232698710     1.645393288
 H       -2.397036554    -1.759858568     2.459634825

