187   

Si        0.000000000     0.000000000     0.000000000
 C        1.865150113     0.000000000     0.000000000
 C       -0.666356909     1.716606931     0.000000000
 C        0.095953918     2.783665546    -0.487671046
 C       -0.415340852     4.081407593    -0.484548228
 C       -1.703325920     4.339798882    -0.008809489
 C       -2.467421197     3.270121415     0.474692785
 C       -1.955173435     1.975986381     0.481556205
 C       -2.287353169     5.675757687     0.017506827
 C       -1.672486287     6.794223075    -0.402586485
 C       -2.273333434     8.123610173    -0.368511815
 C       -1.532560505     9.216464553    -0.835055897
 C       -2.070408647    10.502214705    -0.819433736
 C       -3.370502613    10.719613182    -0.352363679
 C       -4.115719722     9.626579284     0.109060246
 C       -3.571215477     8.344760200     0.102864798
Si       -4.141346095    12.390214574    -0.304408241
 C       -5.908827693    12.269523446    -0.758800549
 C       -6.383983383    11.336116182    -1.594426826
 C       -7.789160080    11.209858922    -1.979675307
 C       -8.152439353    10.183858774    -2.865913772
 C       -9.466714652    10.017590699    -3.264392872
 C      -10.484411383    10.836206175    -2.725545156
 C      -10.121673843    11.861530335    -1.834076503
 C       -8.787168391    12.057559975    -1.496315130
 N      -11.810337259    10.640517270    -3.152554844
 C      -12.276039226     9.240463892    -3.269140571
 C      -12.827538752    11.551779919    -2.604352852
 C      -11.752041690     8.249123140    -2.217347450
 C      -12.175156848     8.572301080    -0.771615884
 N      -11.124458002     8.288563724     0.234121654
 C      -10.452687970     7.054250174     0.048171764
 C      -11.233875979     5.889249766    -0.098178024
 C      -10.624300889     4.659642544    -0.282190276
 C       -9.226069953     4.537283519    -0.279466833
 C       -8.456069921     5.689775172    -0.109129683
 C       -9.053740611     6.934949459     0.054806313
 C      -10.263204884     9.451865095     0.507086462
 C       -8.639480643     3.210865331    -0.479083190
 C       -7.323280899     2.961373166    -0.497666546
Si       -6.603850412     1.298998432    -0.748089318
 C       -7.664520995     0.219833757    -1.794443053
 C       -8.489675460     0.782667380    -2.774380588
 C       -9.296916034    -0.026839591    -3.572122244
 C       -9.286553566    -1.416186662    -3.420439179
 C       -8.450650191    -1.978936819    -2.446954241
 C       -7.646012586    -1.172555283    -1.646033173
 C      -10.113570245    -2.302922056    -4.231924331
 C      -10.955925060    -1.894879666    -5.196213090
 C      -11.782440484    -2.782862193    -6.007018916
 C      -11.773692380    -4.171446156    -5.851568882
 C      -12.580238683    -4.983626098    -6.648494832
 C      -13.419450191    -4.422596139    -7.616154111
 C      -13.430520323    -3.030018208    -7.773837557
 C      -12.620213533    -2.222377018    -6.980677499
Si      -14.489810651    -5.480931029    -8.675667822
 C      -14.588477351    -7.226194965    -8.024187915
 C      -16.226171016    -4.703200065    -8.737348347
 C      -13.784740574    -5.527223598   -10.443159099
 C       -4.920418324     1.494759084    -1.610236213
 C       -6.331883309     0.482335152     0.950645382
 C       -4.011500210    13.086328377     1.460164586
 C       -3.259583902    13.576057218    -1.499869613
 C       -0.671117852    -0.858704664    -1.560676644
 C       -0.592160902    -0.978503300     1.524303456
 H        1.108211627     2.642629195    -0.876385264
 H        0.200664299     4.895258762    -0.861822558
 H       -3.470787828     3.455443749     0.857544602
 H       -2.595094243     1.177590392     0.872815221
 H       -3.305899540     5.719197125     0.417627646
 H       -0.656000047     6.757600346    -0.802954853
 H       -0.522578597     9.064556691    -1.210645357
 H       -1.442277461    11.318074463    -1.186579001
 H       -5.139976094     9.737669324     0.483587771
 H       -4.170447116     7.512115622     0.468352109
 H       -6.562888291    13.032394012    -0.313781264
 H       -5.741950013    10.570869841    -2.056444292
 H       -7.385078661     9.517045471    -3.263891737
 H       -9.716164592     9.258562408    -4.002008173
 H      -10.871297327    12.517823887    -1.405477219
 H       -8.527201594    12.877387413    -0.825224480
 H      -13.793508487    11.370344728    -3.106452999
 H      -12.543670243    12.594770347    -2.838267464
 H      -12.975774291    11.460603407    -1.516718589
 H      -10.893575619    10.324447260     0.746044122
 H       -9.601559721     9.728427736    -0.332928430
 H       -9.645647361     9.246972496     1.399395981
 H      -12.317875309     5.959445085    -0.066540827
 H      -11.242894750     3.771383054    -0.414371912
 H       -7.367117757     5.622388759    -0.109354167
 H       -8.420594798     7.811296103     0.166126575
 H       -9.394602774     2.423743792    -0.617600225
 H       -6.587259776     3.765764469    -0.345176935
 H       -8.532824783     1.863830684    -2.945303893
 H       -9.935847342     0.435868389    -4.322054399
 H       -8.426211104    -3.058670928    -2.314146736
 H       -7.011486490    -1.668835288    -0.906587951
 H      -10.005252443    -3.366939436    -4.001704287
 H      -11.064157067    -0.831136113    -5.427221994
 H      -11.132472737    -4.633155612    -5.102917779
 H      -12.529226493    -6.063024562    -6.480834673
 H      -14.066362954    -2.535609126    -8.513650199
 H      -12.641164808    -1.143128524    -7.119304815
 H      -13.387880689     9.224676864    -3.274434534
 H      -11.959643531     8.890116234    -4.283217500
 H      -12.092732330     7.229425428    -2.485370600
 H      -10.644494800     8.187881822    -2.271258015
 H      -12.478442279     9.636323098    -0.677338017
 H      -13.071254972     7.974327037    -0.489244818
 H        2.265294842    -1.027863819     0.057078511
 H        2.267905286     0.563449405     0.860735281
 H        2.267371842     0.459291358    -0.920474639
 H      -15.269631415    -7.842216392    -8.637965064
 H      -14.971682745    -7.240789771    -6.987677717
 H      -13.601150614    -7.720277583    -8.025914304
 H      -16.088969597    -3.674496082    -9.181500107
 C      -17.212719703    -5.474587909    -9.631885462
 C      -16.845475302    -4.532687298    -7.338311081
 H      -14.449212438    -6.235724809   -11.017363603
 C      -13.814171571    -4.163581109   -11.156248163
 C      -12.347352869    -6.077247652   -10.490251324
 H       -4.246017997     2.026065562    -0.876695076
 C       -4.271977966     0.146151447    -1.965392529
 C       -5.003498305     2.359021305    -2.880682289
 H       -5.746095019    -0.461466890     0.754757779
 C       -5.522900627     1.350580517     1.930261403
 C       -7.660251137     0.091280571     1.623719174
 H       -4.490834754    14.107224469     1.427928989
 C       -4.778725741    12.231601235     2.485140764
 C       -2.558419331    13.254577123     1.937008777
 H       -2.181425796    13.608115475    -1.168315151
 C       -3.299913893    13.077756107    -2.955770267
 C       -3.813835003    15.011256632    -1.450437103
 H       -1.789081672    -0.925805274    -1.410524986
 C       -0.416681670    -0.050483387    -2.845369814
 C       -0.132135997    -2.286957184    -1.751766693
 H        0.084453413    -1.881479483     1.572139106
 C       -0.417193134    -0.186116945     2.832752074
 C       -2.041965685    -1.490955750     1.445387253
 H      -16.870940564    -5.575499183   -10.670104363
 H      -18.174236742    -4.942479139    -9.675650954
 H      -17.436692267    -6.481012349    -9.254140041
 H      -16.219310327    -3.939835588    -6.656123715
 H      -17.058898391    -5.489517880    -6.843698775
 H      -17.805427515    -4.002190560    -7.412816485
 H      -14.821151276    -3.735293985   -11.237452751
 H      -13.443403276    -4.270894030   -12.186163438
 H      -13.166784292    -3.416828579   -10.675112009
 H      -12.253894202    -7.090046921   -10.077723876
 H      -11.626777908    -5.435322625    -9.963102381
 H      -12.000868453    -6.137011395   -11.532009289
 H       -4.079376182    -0.488762336    -1.091266608
 H       -3.295956313     0.319488622    -2.445850205
 H       -4.862797494    -0.440697224    -2.682537242
 H       -5.413896624     3.362087143    -2.701776608
 H       -5.598244289     1.893245730    -3.678273405
 H       -3.995979094     2.511787563    -3.295172498
 H       -4.521483979     1.605709937     1.561976068
 H       -5.373637046     0.810303885     2.876175063
 H       -6.034683509     2.287602508     2.191938688
 H       -8.281562405    -0.579461191     1.014576015
 H       -8.278831831     0.961931981     1.885840497
 H       -7.465324319    -0.441960434     2.564622805
 H       -5.843710956    12.111794848     2.243958735
 H       -4.738073855    12.705503683     3.476237036
 H       -4.349981703    11.226604434     2.609090899
 H       -1.966571043    13.927506156     1.303392249
 H       -2.017618764    12.299807991     2.007036678
 H       -2.541541689    13.690024494     2.946703154
 H       -2.878534022    12.071704200    -3.087536683
 H       -2.710700744    13.745285586    -3.600116432
 H       -4.317389420    13.064730915    -3.373430918
 H       -3.742172870    15.472756250    -0.457383144
 H       -4.861188649    15.076582539    -1.776756986
 H       -3.240649061    15.658238238    -2.130412945
 H       -0.820456961     0.971418891    -2.802835831
 H       -0.905749265    -0.538991040    -3.700589259
 H        0.648117888     0.024991546    -3.101742438
 H       -0.323537690    -2.945127397    -0.894546848
 H        0.946320189    -2.312881683    -1.957021641
 H       -0.620596681    -2.759204330    -2.616820504
 H        0.614508479     0.147793887     3.006210026
 H       -0.683777804    -0.814745231     3.694229098
 H       -1.062628841     0.702220835     2.885973806
 H       -2.228983042    -2.131219576     0.573609035
 H       -2.788531429    -0.685235251     1.435701772
 H       -2.268663279    -2.104934434     2.329373436

