187   

Si        0.000000000     0.000000000     0.000000000
 C        1.865483679     0.000000000     0.000000000
 C       -0.668790253     1.715164788     0.000000000
 C        0.128927608     2.793294686    -0.396987564
 C       -0.380740808     4.091292601    -0.395832858
 C       -1.698902210     4.341602485    -0.005081929
 C       -2.498461612     3.259704145     0.387035746
 C       -1.992253858     1.962615135     0.387957439
 C       -2.272349426     5.683388969     0.011025319
 C       -1.611052613     6.799461647    -0.339983263
 C       -2.177780464     8.143838365    -0.326350438
 C       -3.495238614     8.403332533     0.063029019
 C       -3.994685713     9.704688377     0.060492375
 C       -3.182082149    10.776363778    -0.326304276
 C       -1.862586470    10.520241939    -0.717458422
 C       -1.369289721     9.217816592    -0.720483638
Si       -3.842817674    12.493858566    -0.329155889
 C       -2.468415337    13.694887453    -0.406208266
 C       -2.330959732    14.733174048    -1.241389565
 C       -1.180590372    15.640551317    -1.217671225
 C       -1.115612543    16.703558435    -2.128146896
 C       -0.040868147    17.580624313    -2.132429050
 C        0.988337697    17.463270542    -1.177211303
 C        0.920363350    16.397101773    -0.257090033
 C       -0.134130050    15.496303601    -0.300985592
 N        2.087681827    18.339859028    -1.160994732
 C        1.996152387    19.611549534    -1.892468836
 C        2.815367766    18.460569816     0.114646685
 C        1.023487745    20.625042036    -1.264389807
 C        1.046248799    21.988873147    -1.978645894
 N        0.737727401    21.972768905    -3.427621796
 C       -0.267828284    21.044915840    -3.797981580
 C       -1.522681010    21.152581523    -3.164115113
 C       -2.541937181    20.273038514    -3.486732910
 C       -2.353830077    19.276010777    -4.456460296
 C       -1.117774695    19.191197513    -5.100093295
 C       -0.086809860    20.073013463    -4.793116020
 C        1.940355617    22.002794361    -4.276693045
 C       -3.463121707    18.371182494    -4.761048091
 C       -3.391837086    17.387112825    -5.666750231
Si       -4.746516437    16.233632675    -6.081768832
 C       -5.871689637    15.916290472    -4.660629517
 C       -5.477646707    16.190579015    -3.347183236
 C       -6.341892315    15.944524755    -2.281178976
 C       -7.614766176    15.411952389    -2.502321736
 C       -8.005152885    15.129248865    -3.817856064
 C       -7.143993461    15.373239382    -4.884121559
 C       -8.551819989    15.138372923    -1.418045410
 C       -8.294564351    15.365903766    -0.119233418
 C       -9.218300209    15.098789366     0.976621975
 C      -10.493882763    14.566308953     0.776087439
 C      -11.343741569    14.327415057     1.856127621
 C      -10.933794266    14.617174001     3.161262183
 C       -9.653147209    15.149304458     3.364872497
 C       -8.806659892    15.384128126     2.285590079
Si      -12.042358243    14.308221806     4.597944152
 C      -13.797825499    13.987917707     4.055429944
 C      -11.410569961    12.792698040     5.561298846
 C      -11.973939190    15.826473755     5.744021843
 C       -5.739816317    16.907745920    -7.552941957
 C       -3.925664316    14.589047197    -6.579048619
 C       -5.038850273    12.693421534    -1.792969762
 C       -4.775060249    12.792056172     1.304928198
 C       -0.624422025    -0.913728954    -1.548336535
 C       -0.654342152    -0.909957248     1.538831930
 H        1.167410375     2.661122084    -0.712944796
 H        0.262420699     4.913060818    -0.705631684
 H       -3.528121573     3.432172753     0.694458287
 H       -2.663416799     1.159069372     0.703357505
 H       -3.314653354     5.732898663     0.338347592
 H       -0.568341335     6.747485056    -0.667712673
 H       -4.144069915     7.585899171     0.371024207
 H       -5.033902182     9.847470697     0.370349902
 H       -1.186000325    11.320497017    -1.034596294
 H       -0.342518591     9.035936097    -1.031766970
 H       -1.703275196    13.491062149     0.363732491
 H       -3.065508540    14.976541523    -2.019880364
 H       -1.914262828    16.845193703    -2.861120606
 H       -0.018316245    18.375872957    -2.874639876
 H        1.700164012    16.255262867     0.483556023
 H       -0.145368187    14.669024568     0.410891478
 H        3.562660983    19.268283762     0.060138821
 H        3.370533277    17.522359687     0.300629868
 H        2.153910722    18.658701053     0.973938875
 H        2.543933428    22.887276234    -4.007315309
 H        1.638253383    22.136320838    -5.331260235
 H        2.577556381    21.108629318    -4.200777697
 H       -1.685121917    21.931974526    -2.423555583
 H       -3.504590589    20.360910341    -2.981490362
 H       -0.947760758    18.426926903    -5.860053956
 H        0.859094704    19.980432852    -5.317729751
 H       -4.369867118    18.584256067    -4.178552083
 H       -2.470805648    17.217874472    -6.248566411
 H       -4.487283902    16.593997283    -3.108318553
 H       -6.011031190    16.172564455    -1.268360213
 H       -8.991380327    14.712489607    -4.011677178
 H       -7.503876881    15.129938750    -5.887587764
 H       -9.510635189    14.717543171    -1.732266309
 H       -7.336424972    15.799059793     0.188562969
 H      -10.837031704    14.333702758    -0.230203580
 H      -12.331226825    13.911914940     1.637627217
 H       -9.279768601    15.395587777     4.362998448
 H       -7.814869065    15.796737258     2.463156560
 H        3.019839193    20.045839804    -1.954095554
 H        1.698314776    19.386643020    -2.944073978
 H       -0.003542503    20.204087093    -1.274114358
 H        1.266149075    20.771777491    -0.195491267
 H        0.288665362    22.658559761    -1.503582670
 H        2.030243180    22.481104624    -1.822408648
 H        2.263744702    -1.028691697     0.057742782
 H        2.259901374     0.558270876     0.868615801
 H        2.275962624     0.464429501    -0.913530176
 H      -14.463955136    13.846688412     4.925372184
 H      -13.873883892    13.082382738     3.428385049
 H      -14.192953005    14.838025582     3.470068112
 H      -12.156955942    12.625431053     6.390719164
 C      -11.366228192    11.520601525     4.694898586
 C      -10.026070314    13.001443043     6.200559839
 H      -10.896902028    15.920805453     6.068884963
 C      -12.362924867    17.128405033     5.020549646
 C      -12.836438387    15.679068929     7.010054272
 H       -6.455962399    16.087677247    -7.849526735
 C       -6.566948983    18.150262346    -7.177287296
 C       -4.866363555    17.239191077    -8.775882866
 H       -3.377135806    14.793866149    -7.543108704
 C       -2.897617348    14.119673461    -5.534595421
 C       -4.937327853    13.459999214    -6.837109478
 H       -5.073885906    13.800559055    -2.019981548
 C       -4.535959513    11.965871238    -3.052937692
 C       -6.477978725    12.233390415    -1.503529969
 H       -5.708190951    12.159528710     1.250554403
 C       -3.971392238    12.346536559     2.539694674
 C       -5.200379976    14.258608861     1.489508213
 H       -0.148612890    -1.936083146    -1.514351982
 C       -2.152374598    -1.098816276    -1.573617877
 C       -0.188716812    -0.227416781    -2.855921713
 H       -1.779016201    -0.913576345     1.441709137
 C       -0.186195091    -2.373229695     1.632043021
 C       -0.297120510    -0.184753331     2.848983704
 H      -12.339380418    11.251070468     4.264876720
 H      -11.051275045    10.660894420     5.303776460
 H      -10.645094693    11.591980956     3.867889879
 H       -9.991996597    13.844768687     6.901795516
 H       -9.230253928    13.147401615     5.456450517
 H       -9.742540411    12.110459032     6.779903187
 H      -11.750449192    17.329930173     4.130038360
 H      -12.222378508    17.988621403     5.690604315
 H      -13.415679995    17.148362285     4.708961117
 H      -12.570175261    14.805067905     7.618478080
 H      -13.910997045    15.619978697     6.791862183
 H      -12.703061924    16.556990756     7.659008029
 H       -7.266988126    17.973785469    -6.348626775
 H       -7.178654520    18.469799832    -8.032908897
 H       -5.943141802    19.013788782    -6.905166696
 H       -4.296985981    16.379887619    -9.152238462
 H       -4.155556015    18.055478323    -8.584529401
 H       -5.500120251    17.574564520    -9.609788234
 H       -2.070517630    14.827908959    -5.386820921
 H       -2.437372406    13.173953616    -5.854209883
 H       -3.344649905    13.925497163    -4.547433299
 H       -5.655366898    13.689958522    -7.634053324
 H       -5.510660293    13.184987376    -5.939587224
 H       -4.410753592    12.547949877    -7.154747315
 H       -3.506461439    12.228134567    -3.333025870
 H       -5.168549252    12.227033245    -3.913872026
 H       -4.578804739    10.871771924    -2.957480373
 H       -6.955211202    12.789105430    -0.684276303
 H       -6.554605740    11.162681972    -1.278483364
 H       -7.108590864    12.410336424    -2.388144767
 H       -3.670348798    11.290113233     2.505351065
 H       -4.581628030    12.461855170     3.446687776
 H       -3.063682655    12.943266399     2.699693857
 H       -5.823771781    14.629959389     0.664826244
 H       -4.345504474    14.941045273     1.595975155
 H       -5.799977453    14.362937884     2.404873861
 H       -2.536085388    -1.670426896    -0.719153587
 H       -2.448145682    -1.657643231    -2.473409637
 H       -2.697471433    -0.144961355    -1.613528983
 H        0.899838815    -0.129330669    -2.955658752
 H       -0.626289335     0.773918607    -2.978622324
 H       -0.524219994    -0.817285962    -3.720914554
 H       -0.467536287    -2.976270846     0.759151921
 H       -0.648250896    -2.860077775     2.503186677
 H        0.899268902    -2.467747631     1.768197706
 H       -0.649020667     0.856514274     2.878487530
 H        0.781720630    -0.174484559     3.053432552
 H       -0.768853090    -0.692727908     3.702085588

