187   

Si        0.000000000     0.000000000     0.000000000
 C        1.865854746     0.000000000     0.000000000
 C       -0.682787931     1.709249004     0.000000000
 C        0.156013413     2.827255102    -0.039675530
 C       -0.378387487     4.115849854    -0.039069001
 C       -1.760754785     4.315930661    -0.008855480
 C       -2.600260419     3.194338543     0.031232424
 C       -2.069772640     1.907607203     0.040797517
 C       -2.365605444     5.643741413    -0.006974478
 C       -1.679393597     6.798895565    -0.033441308
 C       -2.288093473     8.125252311    -0.031457789
 C       -3.672324891     8.317594016    -0.001130306
 C       -4.212944770     9.602707151    -0.000347794
 C       -3.377470115    10.724323846    -0.009171077
 C       -1.989925154    10.535771106    -0.034572781
 C       -1.453720067     9.250631084    -0.050740912
Si       -4.072066238    12.424861888    -0.008286745
 C       -2.913996632    13.584853692     0.794911044
 C       -2.493795575    14.757657049     0.302810142
 C       -1.560411950    15.641175989     1.003750326
 C       -1.180584825    16.850968138     0.402960163
 C       -0.300358942    17.716485385     1.030304904
 C        0.180212757    17.430750901     2.327940692
 C       -0.201896219    16.218077481     2.931007616
 C       -1.031958236    15.330135999     2.258217081
 N        1.073020662    18.321476529     2.948083695
 C        0.854979022    19.767249986     2.740070755
 C        1.514757935    17.990922133     4.312131644
 C       -0.598035430    20.270195122     2.798740657
 C       -1.252814002    20.252759237     4.194273017
 N       -2.405347917    19.334816328     4.375751897
 C       -3.170718902    19.081719654     3.209917944
 C       -3.698264023    20.189497984     2.515342209
 C       -4.453300477    19.996959295     1.370107300
 C       -4.720335347    18.706784362     0.887635005
 C       -4.217591590    17.612281256     1.594271330
 C       -3.468006003    17.789901718     2.751447393
 C       -2.093997067    18.158917437     5.204141206
 C       -5.523805237    18.561895003    -0.327261633
 C       -5.845146643    17.386245502    -0.883971533
Si       -6.850406847    17.223144597    -2.402835951
 C       -8.057341357    18.595791823    -2.593873379
 C       -8.630687390    19.183136699    -1.458220708
 C       -9.546381426    20.223745074    -1.587793807
 C       -9.921825953    20.694935276    -2.852841861
 C       -9.354846578    20.101392633    -3.983936711
 C       -8.434327651    19.061573180    -3.857363467
 C      -10.885097341    21.787739982    -2.938218149
 C      -11.323707550    22.331962243    -4.085946034
 C      -12.286759084    23.424619244    -4.173721474
 C      -12.856123471    24.020990430    -3.045758397
 C      -13.773382818    25.063676166    -3.176527302
 C      -14.146081052    25.528722297    -4.441468740
 C      -13.577198122    24.931458060    -5.574638353
 C      -12.658259240    23.894500031    -5.440778998
Si      -15.355134491    26.903737230    -4.632432861
 C      -16.225368288    27.280955005    -3.026175419
 C      -14.448459254    28.471506260    -5.218370090
 C      -16.619319415    26.401331832    -5.963859085
 C       -5.664598847    17.191417319    -3.892367487
 C       -7.782441118    15.567601035    -2.327538510
 C       -4.452642260    12.967565769    -1.788349736
 C       -5.690588851    12.457015400     0.997016819
 C       -0.580004975    -0.939785038    -1.551666838
 C       -0.669799532    -0.890372389     1.542536870
 H        1.245080013     2.733911819    -0.070223345
 H        0.296523738     4.969437554    -0.065599500
 H       -3.680041632     3.327988223     0.058013577
 H       -2.773969105     1.071653635     0.082284610
 H       -3.459377141     5.647210895     0.017982127
 H       -0.585791362     6.796976841    -0.058911546
 H       -4.342625463     7.460331167     0.017128365
 H       -5.302772936     9.690425405     0.013206154
 H       -1.290542470    11.378473728    -0.042370492
 H       -0.373126520     9.122292058    -0.075185235
 H       -2.569844484    13.227443698     1.780317884
 H       -2.816099943    15.149326409    -0.670816282
 H       -1.574271188    17.113056876    -0.580779775
 H        0.020839993    18.619293184     0.518162677
 H        0.162858705    15.945866268     3.915786828
 H       -1.286823617    14.383088889     2.737817662
 H        2.308416346    18.692014236     4.623081702
 H        1.970280962    16.983360740     4.315457900
 H        0.708147956    18.021666309     5.061367381
 H       -1.647492487    18.494420348     6.154881952
 H       -1.414740733    17.436141587     4.723967068
 H       -3.035852664    17.638978552     5.459532828
 H       -3.509091479    21.193312281     2.886240034
 H       -4.848874299    20.863890170     0.840621229
 H       -4.403621907    16.595410907     1.239967857
 H       -3.077115882    16.913459770     3.262986995
 H       -5.853087798    19.525042937    -0.742368848
 H       -5.494293504    16.434658814    -0.454331812
 H       -8.378592641    18.852222627    -0.444678220
 H       -9.976293815    20.672362849    -0.694034842
 H       -9.629809151    20.447542491    -4.978472247
 H       -8.026135677    18.637611145    -4.778782609
 H      -11.246776556    22.155579032    -1.973526271
 H      -10.961875357    21.963364335    -5.050330253
 H      -12.585868773    23.674687587    -2.049832998
 H      -14.184175032    25.491017956    -2.257596507
 H      -13.831668448    25.252589538    -6.588699220
 H      -12.226536702    23.443922875    -6.332446526
 H        1.478490219    20.335213723     3.465177416
 H        1.273999818    20.004178796     1.729654957
 H       -0.620785011    21.306080500     2.404931056
 H       -1.213821772    19.695010047     2.074775544
 H       -0.488738673    20.042950113     4.971467959
 H       -1.649603606    21.272257177     4.422613756
 H        2.263362042    -1.030592408     0.011396605
 H        2.265528093     0.518106773     0.890372969
 H        2.271825492     0.503754346    -0.894946142
 H      -16.985886363    28.070673457    -3.161269548
 H      -15.520302105    27.627651864    -2.250431259
 H      -16.743115543    26.385707701    -2.636406816
 H      -15.232836233    29.282111609    -5.250313903
 C      -13.344327192    28.913616244    -4.240384073
 C      -13.838371587    28.344520714    -6.625704526
 H      -16.023235517    26.232753291    -6.907716506
 C      -17.342349429    25.085520018    -5.623726692
 C      -17.667959298    27.488881350    -6.257248836
 H       -6.314788446    17.066382616    -4.805458647
 C       -4.882435043    18.509248861    -4.037714291
 C       -4.666739522    16.021252205    -3.856979729
 H       -6.999260873    14.774642085    -2.141517265
 C       -8.796948119    15.521833666    -1.171204696
 C       -8.505752468    15.218419333    -3.639572439
 H       -4.741431089    14.057773359    -1.721238580
 C       -3.223836642    12.852339720    -2.708525487
 C       -5.624934722    12.203461347    -2.427586476
 H       -6.412286601    11.787219314     0.447015193
 C       -5.509922473    11.895971257     2.418932929
 C       -6.316701083    13.858632487     1.091509005
 H       -0.018801485    -1.919023477    -1.534071877
 C       -2.085175823    -1.259214577    -1.574424795
 C       -0.214229583    -0.203067838    -2.853486712
 H       -1.794420678    -0.869109942     1.444343102
 C       -0.230765193    -2.362007892     1.641986742
 C       -0.298807311    -0.166666655     2.849698336
 H      -13.715530154    29.120337907    -3.228358587
 H      -12.879316566    29.845373943    -4.593161774
 H      -12.531260152    28.178547874    -4.152955195
 H      -14.576134948    28.102898796    -7.401157043
 H      -13.036490490    27.594536751    -6.676372326
 H      -13.382330443    29.299743158    -6.924440284
 H      -16.655389735    24.246325353    -5.442832007
 H      -17.984504406    24.780473721    -6.462207362
 H      -17.998105069    25.170801710    -4.747114805
 H      -17.227911685    28.435011108    -6.598064797
 H      -18.310381396    27.710016211    -5.394671607
 H      -18.339616650    27.155134832    -7.061615738
 H       -5.528904324    19.392556911    -4.133387759
 H       -4.263617954    18.484144406    -4.945346189
 H       -4.195371772    18.692868462    -3.198576312
 H       -5.153783347    15.036674305    -3.841582839
 H       -3.977803941    16.071512761    -3.001492944
 H       -4.037823520    16.036354590    -4.758541153
 H       -8.353590049    15.732669953    -0.187997787
 H       -9.245353342    14.520761272    -1.101530765
 H       -9.633021128    16.222317166    -1.310866198
 H       -7.829281175    15.126409092    -4.498801777
 H       -9.287143831    15.944327768    -3.905624697
 H       -9.013145099    14.247569636    -3.542969280
 H       -2.349100289    13.409841836    -2.346019947
 H       -3.456289016    13.255004073    -3.704533522
 H       -2.905933740    11.811849174    -2.866568202
 H       -6.569639401    12.314074700    -1.879495884
 H       -5.426453931    11.128235071    -2.537511050
 H       -5.813814810    12.582717594    -3.442612784
 H       -5.096512097    10.878175974     2.439787734
 H       -6.482375763    11.840117169     2.928414397
 H       -4.867962196    12.526899404     3.049258734
 H       -6.564632706    14.287554751     0.111127995
 H       -5.679230412    14.578888510     1.624416451
 H       -7.260735545    13.813161674     1.652968203
 H       -2.425938247    -1.824799985    -0.698118167
 H       -2.322154684    -1.880497612    -2.450650762
 H       -2.710424786    -0.360061085    -1.661437529
 H        0.860554088    -0.005480220    -2.957113358
 H       -0.739325031     0.756902336    -2.962387645
 H       -0.499971576    -0.810920854    -3.723788915
 H       -0.523283362    -2.963141005     0.771380418
 H       -0.702481968    -2.836092142     2.515027961
 H        0.852651210    -2.477178264     1.778806157
 H       -0.628982786     0.881775720     2.873883633
 H        0.779392499    -0.179334000     3.056612015
 H       -0.783908933    -0.660068585     3.704023280

