187   

Si        0.000000000     0.000000000     0.000000000
 C        1.865094137     0.000000000     0.000000000
 C       -0.665467737     1.716582733     0.000000000
 C        0.055574862     2.745679104    -0.615899062
 C       -0.436247778     4.050015763    -0.623504166
 C       -1.661302590     4.355222012    -0.023716486
 C       -2.385610647     3.322386746     0.585390668
 C       -1.897109133     2.018177593     0.594249015
 C       -2.212474850     5.706267792    -0.008973809
 C       -1.615858983     6.778095402    -0.557605259
 C       -2.160261406     8.131498725    -0.547027133
 C       -3.383548897     8.447966099     0.049435760
 C       -3.865518499     9.756795091     0.035546405
 C       -3.139011622    10.774440015    -0.589815694
 C       -1.913146843    10.459502968    -1.191975140
 C       -1.429653524     9.154626422    -1.166247775
Si       -3.740857755    12.512223638    -0.629510180
 C       -3.345301305    13.308223050    -2.228459802
 C       -3.255175831    12.635198020    -3.383399767
 C       -2.940462842    13.247154372    -4.675321116
 C       -2.877424192    12.423080527    -5.810104450
 C       -2.584035901    12.947852121    -7.056793397
 C       -2.388436604    14.336566780    -7.216122388
 C       -2.451770434    15.162783846    -6.083611631
 C       -2.703427627    14.614028979    -4.829820161
 N       -2.090524093    14.821826439    -8.512821664
 C       -3.028748371    14.406707375    -9.574076060
 C       -1.713480995    16.240976889    -8.611124059
 C       -4.404562062    15.100578483    -9.570488671
 C       -5.179531815    14.895991276    -8.253335579
 N       -6.626481581    14.716508145    -8.431421201
 C       -7.081427937    13.509049652    -8.980738404
 C       -6.260728194    12.360495037    -8.995938686
 C       -6.721884431    11.173534693    -9.541569811
 C       -8.027857106    11.061336789   -10.037978791
 C       -8.851186954    12.190388165    -9.993482533
 C       -8.397335807    13.394621754    -9.473812280
 C       -7.323333712    15.947398855    -8.835541342
 C       -8.464978294     9.784617638   -10.604113169
 C       -9.688452718     9.567670808   -11.105262931
Si      -10.273138423     7.991354977   -11.820100246
 C       -9.479034918     6.501573239   -11.089072722
 C       -8.885939806     6.541236437    -9.823064074
 C       -8.288032235     5.402290952    -9.283419509
 C       -8.281291730     4.196927779    -9.989738389
 C       -8.884923232     4.156547269   -11.254008802
 C       -9.479317171     5.292025170   -11.796762015
 C       -7.670592657     2.977497058    -9.472073701
 C       -7.057518368     2.863597175    -8.281617013
 C       -6.452326184     1.632397812    -7.782373710
 C       -6.459837527     0.443255148    -8.516230045
 C       -5.871490160    -0.713984668    -8.006903306
 C       -5.248168762    -0.703063191    -6.755301644
 C       -5.234005851     0.489381501    -6.018825380
 C       -5.830449136     1.640597128    -6.526551009
Si       -4.469861396    -2.227057245    -6.077565662
 C       -4.376033382    -3.577290401    -7.361689400
 C       -2.722875532    -1.794088748    -5.458557510
 C       -5.487544982    -2.857216719    -4.596595878
 C      -12.150756410     7.883712748   -11.526130582
 C       -9.949274824     8.020708538   -13.695896089
 C       -5.624675269    12.572227838    -0.371881117
 C       -2.898443441    13.491268710     0.765977301
 C       -0.623926230    -0.879595822    -1.568307908
 C       -0.654549615    -0.940275164     1.519082090
 H        1.019670054     2.569143342    -1.101405836
 H        0.146270275     4.833306515    -1.105379208
 H       -3.342532369     3.538025170     1.056993102
 H       -2.507730969     1.253817679     1.082372149
 H       -3.178500533     5.802088071     0.494762085
 H       -0.649134048     6.679141601    -1.060725020
 H       -3.971341401     7.671514640     0.535169301
 H       -4.825054222     9.944336298     0.525010707
 H       -1.303368508    11.216644865    -1.696810641
 H       -0.474377400     8.928613213    -1.636395946
 H       -3.200162875    14.397264403    -2.184488396
 H       -3.406512271    11.547376992    -3.448461902
 H       -3.051238006    11.350549963    -5.708251077
 H       -2.491870603    12.286024516    -7.915216034
 H       -2.304974096    16.234464741    -6.168045809
 H       -2.733377694    15.273311298    -3.961651415
 H       -1.377125016    16.453951049    -9.640628423
 H       -0.853429576    16.435450300    -7.945465136
 H       -2.524716628    16.941653711    -8.358709334
 H       -6.819504721    16.830050132    -8.408161137
 H       -8.350030752    15.934859344    -8.425162003
 H       -7.377772552    16.075520470    -9.928849162
 H       -5.252484446    12.398078174    -8.592115172
 H       -6.058759006    10.307479175    -9.567933069
 H       -9.873223301    12.131550387   -10.370853843
 H       -9.070255030    14.245153309    -9.453175443
 H       -7.686206332     9.009803235   -10.579319505
 H      -10.441825260    10.371212676   -11.125992557
 H       -8.871890545     7.453865443    -9.217585171
 H       -7.827384844     5.460330671    -8.298825744
 H       -8.891888483     3.227226569   -11.820170346
 H       -9.934500623     5.197880557   -12.786604290
 H       -7.743053223     2.114702633   -10.141818247
 H       -6.981687118     3.720832827    -7.607027102
 H       -6.931735715     0.408654125    -9.496528622
 H       -5.915210429    -1.613997079    -8.626300979
 H       -4.756940826     0.558096278    -5.036489664
 H       -5.810376983     2.557220399    -5.939468924
 H       -2.524157166    14.596333435   -10.550777713
 H       -3.165930101    13.302519673    -9.518486868
 H       -4.290505037    16.178637124    -9.776789204
 H       -4.997240535    14.698361562   -10.417508020
 H       -4.791388188    14.015570623    -7.686220014
 H       -5.017381126    15.760865391    -7.570485534
 H        2.263607720    -1.028618220     0.056358748
 H        2.258766595     0.557421350     0.869676411
 H        2.276950035     0.466961988    -0.911457165
 H       -3.888034096    -4.481134606    -6.955587352
 H       -3.789202932    -3.249190583    -8.238772325
 H       -5.378296900    -3.872939822    -7.717928914
 H       -2.867217675    -1.072387068    -4.601489105
 C       -1.949061339    -3.015398118    -4.929938916
 C       -1.872816628    -1.086609524    -6.528833775
 H       -4.952897261    -3.780848357    -4.230607537
 C       -5.569969339    -1.859431994    -3.427704204
 C       -6.918488096    -3.262106326    -4.996339056
 H      -12.594675644     8.800819669   -12.010229748
 C      -12.798456693     6.644570578   -12.167855771
 C      -12.504951386     7.913941210   -10.028485279
 H      -10.432543871     7.090733595   -14.112860702
 C      -10.575242931     9.237457385   -14.400192285
 C       -8.447118090     7.967788486   -14.027009296
 H       -5.820733708    12.080977503     0.624561775
 C       -6.183329225    14.005308548    -0.311950551
 C       -6.386635211    11.786558335    -1.454104794
 H       -3.303593793    14.542070870     0.698622768
 C       -3.221458931    12.942790795     2.166723071
 C       -1.370134613    13.557374940     0.594655391
 H       -0.098015826    -1.877057410    -1.592039998
 C       -2.140766878    -1.138820552    -1.559704891
 C       -0.259995131    -0.114184150    -2.853506942
 H       -1.780363201    -0.918444372     1.438062682
 C       -0.216951244    -2.415638321     1.561077506
 C       -0.263374414    -0.264743567     2.845969544
 H       -2.468588928    -3.546886981    -4.122230075
 H       -0.979956626    -2.698742445    -4.515766084
 H       -1.719119842    -3.747464786    -5.715628259
 H       -2.338861856    -0.167773890    -6.913755537
 H       -1.646525336    -1.727207442    -7.391317668
 H       -0.904110631    -0.784854509    -6.105557371
 H       -4.589648822    -1.559348297    -3.035602724
 H       -6.110981714    -2.313561342    -2.584884796
 H       -6.123060511    -0.945427642    -3.687629753
 H       -6.952742143    -4.040658713    -5.769048696
 H       -7.519008399    -2.412929377    -5.353099024
 H       -7.451654450    -3.670713977    -4.125979417
 H      -12.671011611     6.600665996   -13.256801450
 H      -13.883050668     6.651022685   -11.986288254
 H      -12.424656626     5.699945663   -11.747210776
 H      -12.119801977     8.800565920    -9.506022450
 H      -12.143225193     7.028168344    -9.486437015
 H      -13.596210878     7.928930929    -9.898664382
 H      -11.662888095     9.304255500   -14.271081670
 H      -10.398190929     9.176297008   -15.483607898
 H      -10.138881609    10.191365947   -14.071651667
 H       -7.941191788     7.084446287   -13.612423730
 H       -7.900672209     8.855814878   -13.677879974
 H       -8.301144118     7.923560131   -15.115291727
 H       -5.745667235    14.611426333     0.491227631
 H       -7.265759905    13.977901868    -0.119490854
 H       -6.054761188    14.553659739    -1.255727253
 H       -6.086005050    10.732157030    -1.524479933
 H       -6.279152270    12.226484495    -2.456973711
 H       -7.463288099    11.785502897    -1.233008011
 H       -4.293461818    12.951782471     2.401874246
 H       -2.733740529    13.560780669     2.934560030
 H       -2.854028918    11.917986298     2.320857587
 H       -1.056400522    13.989792332    -0.365132106
 H       -0.887209842    12.574055313     0.690121590
 H       -0.930141738    14.191768062     1.377204415
 H       -2.475995733    -1.744027656    -0.708205498
 H       -2.426681215    -1.699329617    -2.463633104
 H       -2.731486896    -0.211970229    -1.566930443
 H        0.819862293     0.028123285    -2.985207100
 H       -0.736688759     0.875259886    -2.911997348
 H       -0.606961095    -0.672116715    -3.736781975
 H       -0.524680235    -2.985832432     0.674962055
 H       -0.676042966    -2.918572787     2.424628299
 H        0.868102892    -2.537789664     1.677186892
 H       -0.584140958     0.784630076     2.911955172
 H        0.817716385    -0.291395153     3.037830842
 H       -0.739436124    -0.785451181     3.689037277

