187   

Si        0.000000000     0.000000000     0.000000000
 C        1.865334655     0.000000000     0.000000000
 C       -0.681730899     1.709740328     0.000000000
 C        0.125278735     2.809348602     0.308325480
 C       -0.403132108     4.100187238     0.304931410
 C       -1.748869453     4.320618806     0.000587700
 C       -2.557218567     3.217148887    -0.304161489
 C       -2.032349212     1.927960720    -0.304175491
 C       -2.345371413     5.652116395    -0.015360727
 C       -1.684349811     6.790663068     0.254341041
 C       -2.282348108     8.121649060     0.237981256
 C       -3.629300557     8.337576306    -0.067090717
 C       -4.160743971     9.626680188    -0.071385757
 C       -3.349232737    10.728707976     0.215204672
 C       -1.998547360    10.517160256     0.520672303
 C       -1.475214123     9.227029041     0.537724709
Si       -4.030697145    12.437112554     0.214749734
 C       -2.673530116    13.620246876    -0.110072410
 C       -2.399185274    14.715015637     0.610103501
 C       -1.299968819    15.638117522     0.314726289
 C       -1.117364681    16.752805636     1.148609603
 C       -0.093407557    17.656419774     0.913605006
 C        0.794830660    17.442046822    -0.153330237
 C        0.624064114    16.333001511    -0.987659369
 C       -0.425001927    15.447457694    -0.756574707
 N        1.823470225    18.428155363    -0.321655971
 C        2.973554219    18.162856964     0.573464101
 C        2.221496478    18.658650438    -1.721575131
 C        3.849267728    16.962787069     0.159648997
 C        4.642526082    16.384975701     1.347805177
 N        4.033979026    15.201061438     1.991724683
 C        2.802499616    15.459380044     2.652727057
 C        2.814578547    16.383412193     3.715891135
 C        1.643826722    16.675106456     4.397532736
 C        0.435620283    16.049743228     4.057473847
 C        0.438851420    15.108749461     3.024605541
 C        1.608657411    14.792825957     2.343388385
 C        4.052965404    14.011461592     1.122528764
 C       -0.775719504    16.390865840     4.807033080
 C       -1.977224045    15.852653167     4.563121571
Si       -3.533405922    16.221021517     5.447366996
 C       -4.286225114    14.614199055     5.928902192
 C       -3.458519862    13.576121210     6.377321634
 C       -4.004977905    12.350485976     6.747524084
 C       -5.387096315    12.130461620     6.674620329
 C       -6.209199017    13.168959000     6.229144563
 C       -5.666163082    14.400377880     5.864067261
 C       -5.911841023    10.829116882     7.073711158
 C       -7.212525119    10.491997347     7.057893291
 C       -7.737037991     9.190291825     7.457133379
 C       -6.915418480     8.151644027     7.902612031
 C       -7.458638145     6.922133539     8.274817774
 C       -8.837857651     6.703156263     8.203192731
 C       -9.664170303     7.743037856     7.755706948
 C       -9.119454934     8.970690841     7.389752282
Si       -9.571417217     5.086575361     8.690496836
 C       -8.259675221     3.781741684     8.927563178
 C      -10.532107359     5.286622866    10.321419424
 C      -10.789753495     4.556662280     7.327365718
 C       -3.225068792    17.259165530     7.008982484
 C       -4.675832129    17.210170549     4.291537899
 C       -5.381483052    12.646716070    -1.100062260
 C       -4.772972116    12.733880843     1.941963717
 C       -0.654536326    -0.906231938    -1.540948029
 C       -0.614754394    -0.921084277     1.548341070
 H        1.184906225     2.699680984     0.554841391
 H        0.246994045     4.939575149     0.544711777
 H       -3.608267020     3.366743850    -0.543905727
 H       -2.711013605     1.106763817    -0.551213384
 H       -3.409116000     5.673376943    -0.269959503
 H       -0.621001937     6.769712065     0.510103222
 H       -4.278145908     7.495657707    -0.300797923
 H       -5.222532612     9.733494092    -0.309430564
 H       -1.320388787    11.344218124     0.757493804
 H       -0.425696280     9.078653862     0.784122822
 H       -2.073795337    13.359243312    -0.998112485
 H       -2.982167184    15.005054653     1.495463461
 H       -1.792211116    16.920206955     1.990839089
 H        0.038125475    18.529268799     1.551881229
 H        1.299474011    16.160302823    -1.819831194
 H       -0.551927073    14.592934231    -1.421419391
 H        2.870682144    19.550610500    -1.755862883
 H        1.319509609    18.883709981    -2.317515317
 H        2.753926909    17.822779992    -2.197927657
 H        5.092109411    13.820649369     0.803541173
 H        3.422714003    14.092071592     0.222960666
 H        3.726621469    13.131776311     1.705888505
 H        3.748018841    16.861108140     4.003071233
 H        1.667755028    17.398012037     5.212569321
 H       -0.484853704    14.593838171     2.746589587
 H        1.569918456    14.058657621     1.543450789
 H       -0.605415013    17.139368664     5.590714897
 H       -2.109121198    15.100244867     3.764584827
 H       -2.371017971    13.689996206     6.446496130
 H       -3.348221221    11.554045636     7.093708276
 H       -7.285870493    13.024343209     6.165565767
 H       -6.359533184    15.176358295     5.529019053
 H       -5.153762700    10.110156535     7.398841486
 H       -7.970540037    11.209837183     6.731507703
 H       -5.837788120     8.294588225     7.962319933
 H       -6.765450697     6.147703152     8.615180530
 H      -10.749056138     7.628802338     7.678191239
 H       -9.777373778     9.766369678     7.045878663
 H        3.583591248    19.091285242     0.612522118
 H        2.570037775    18.004806687     1.601929205
 H        3.209399587    16.173339717    -0.281586431
 H        4.543949188    17.265565891    -0.643250981
 H        5.662408404    16.087679567     1.012230851
 H        4.798382882    17.162744385     2.128306613
 H        2.263440048    -1.029747325    -0.036456090
 H        2.275249069     0.483101650     0.904186362
 H        2.260362135     0.539915181    -0.879778213
 H       -8.710239057     2.804781957     9.178158058
 H       -7.562922075     4.045237204     9.742607043
 H       -7.665115964     3.645622268     8.005729139
 H      -10.882145244     4.249747121    10.596628878
 C       -9.644801673     5.810487451    11.465746048
 C      -11.771403968     6.191837990    10.205465995
 H      -11.569924685     5.371065573     7.277071226
 C      -10.120504239     4.460667298     5.944342687
 C      -11.511099318     3.231098024     7.629015730
 H       -2.669606248    18.180113404     6.667387803
 C       -4.524178754    17.714574777     7.697339226
 C       -2.349474617    16.527368049     8.042480663
 H       -5.610794088    17.414040099     4.889765237
 C       -4.073212794    18.564336674     3.875022849
 C       -5.082398950    16.440636515     3.023050328
 H       -6.193136391    11.908729739    -0.833556402
 C       -6.003379707    14.054988773    -1.100772812
 C       -4.884797665    12.314279497    -2.518315698
 H       -5.013634870    13.834843631     1.998082319
 C       -6.071362600    11.951854927     2.203666497
 C       -3.765676685    12.398485853     3.055289002
 H       -1.778761724    -0.917800551    -1.439035517
 C       -0.308095558    -0.171226000    -2.848425050
 C       -0.176765930    -2.365632058    -1.644175298
 H       -0.119797967    -1.934504505     1.517371736
 C       -0.194009814    -0.223766479     2.855099967
 C       -2.138720704    -1.135610045     1.572832205
 H       -8.777517339     5.170583545    11.673447934
 H      -10.222947696     5.856786192    12.399757978
 H       -9.271079609     6.828627162    11.284628135
 H      -12.494329885     5.848658204     9.454749215
 H      -11.516235198     7.236116138     9.976759132
 H      -12.311565864     6.212286769    11.163319056
 H       -9.625599659     5.392847845     5.635919564
 H      -10.874957530     4.244851208     5.174547271
 H       -9.376491064     3.655405933     5.882356093
 H      -12.074848329     3.247437131     8.570722454
 H      -10.829979360     2.370423104     7.661811574
 H      -12.242409374     3.013378932     6.837061115
 H       -5.162801207    18.336556346     7.057432592
 H       -4.287509438    18.326803067     8.579913175
 H       -5.132509794    16.875301386     8.063416108
 H       -1.378405866    16.202305478     7.644900724
 H       -2.844325519    15.642712334     8.468973669
 H       -2.129038605    17.192866760     8.889080489
 H       -3.850924019    19.222759229     4.724286110
 H       -4.784377406    19.114165258     3.241920141
 H       -3.151687496    18.462240442     3.283575350
 H       -5.515678174    15.451768408     3.229283721
 H       -4.244465517    16.302276628     2.324163567
 H       -5.849556474    17.002114294     2.471055055
 H       -6.462038778    14.327693602    -0.141334244
 H       -6.804258068    14.112367696    -1.851456467
 H       -5.281550881    14.842036169    -1.361864280
 H       -4.461497544    11.303824339    -2.606404766
 H       -4.130314217    13.023760734    -2.884953337
 H       -5.720760012    12.359052536    -3.230781431
 H       -6.881339680    12.201395724     1.508236425
 H       -6.447307904    12.182067948     3.212834575
 H       -5.928222175    10.862328292     2.179838056
 H       -2.829292165    12.967791473     2.992351961
 H       -3.504133153    11.331383087     3.091270853
 H       -4.204803181    12.631130414     4.039331272
 H       -0.670544344     0.866589853    -2.871426394
 H       -0.777534403    -0.679314339    -3.702722451
 H        0.769904672    -0.149426219    -3.056124838
 H       -0.449068031    -2.975340798    -0.773034360
 H        0.908576283    -2.451809075    -1.786709920
 H       -0.640132395    -2.851044574    -2.515420093
 H        0.892272861    -0.103192587     2.955642628
 H       -0.518278767    -0.818900185     3.720802784
 H       -0.651627355     0.768838284     2.975633407
 H       -2.513003266    -1.703664831     0.711880681
 H       -2.701472253    -0.192858165     1.626161936
 H       -2.422281314    -1.711463970     2.465881222

