187   

Si        0.000000000     0.000000000     0.000000000
 C        1.865300841     0.000000000     0.000000000
 C       -0.677187349     1.711602856     0.000000000
 C        0.125111396     2.803790262    -0.345206140
 C       -0.397344836     4.096984411    -0.342183041
 C       -1.732317477     4.327665124    -0.000073625
 C       -2.536149141     3.231593528     0.341181879
 C       -2.017502685     1.939734415     0.339944699
 C       -2.321833573     5.662181944     0.016899847
 C       -1.664156116     6.794066226    -0.287142445
 C       -2.255748830     8.127801444    -0.269512737
 C       -1.455127216     9.225646440    -0.609170927
 C       -1.977180204    10.517419431    -0.606104139
 C       -3.311097332    10.742922617    -0.250139456
 C       -4.112932436     9.646014597     0.091270034
 C       -3.591301237     8.354194682     0.076523304
Si       -4.053658764    12.429270122    -0.228676976
 C       -5.223861131    12.589363742     1.169770948
 C       -5.079056849    11.912721792     2.316814708
 C       -5.981912894    12.002453097     3.463675793
 C       -5.697719381    11.230617920     4.597135006
 C       -6.513120163    11.269439204     5.717754841
 C       -7.717582846    12.002565865     5.698386093
 C       -8.020553727    12.755037435     4.543209404
 C       -7.152319692    12.767841158     3.461104129
 N       -8.561751210    12.058695387     6.819043602
 C       -8.318836546    11.130735680     7.935621725
 C       -9.986082130    12.317441594     6.550379428
 C       -8.407577590     9.630299124     7.599554593
 C       -9.834657035     9.058389858     7.693557118
 N      -10.212080334     8.157751527     6.579437784
 C      -10.384432024     8.884250650     5.353793576
 C      -11.642416500     9.480825058     5.170343861
 C      -11.900503030    10.203137044     4.015695966
 C      -10.914473488    10.357341692     3.029801455
 C       -9.668877814     9.752557135     3.216972409
 C       -9.405290691     9.007466883     4.362241639
 C       -9.331926059     6.980857925     6.465506099
 C      -11.246409875    11.131583413     1.831411176
 C      -10.397340639    11.351928195     0.820272380
Si      -10.787167193    12.313938263    -0.684808096
 C       -9.444432527    13.541597002    -0.939993230
 C       -8.861062503    14.139240228     0.183971343
 C       -7.840101820    15.075058707     0.035221719
 C       -7.402629856    15.454766118    -1.237355228
 C       -7.996245088    14.863638859    -2.359860257
 C       -9.004999415    13.913791089    -2.214575337
 C       -6.337102773    16.430656705    -1.436772993
 C       -5.694320978    17.062331503    -0.440018261
 C       -4.627613976    18.039848742    -0.625461995
 C       -4.163869729    18.419384236    -1.887290416
 C       -3.140937443    19.358642838    -2.016871803
 C       -2.558990308    19.936796206    -0.884479287
 C       -3.021139747    19.555295684     0.382553084
 C       -4.041372244    18.617388480     0.508887855
Si       -1.208118175    21.177849063    -1.036903769
 C       -1.044514597    21.807103864    -2.784893608
 C       -1.579056249    22.617315305     0.151276298
 C        0.435070633    20.367487526    -0.519031731
 C      -10.909277376    11.115359366    -2.154922987
 C      -12.434542634    13.246577299    -0.514096795
 C       -2.650364341    13.702804948    -0.040829438
 C       -4.994642921    12.768833684    -1.839242629
 C       -0.618133551    -0.918749723    -1.548274582
 C       -0.655051608    -0.908272392     1.539708386
 H        1.176667394     2.686450872    -0.621092841
 H        0.248795261     4.930252623    -0.612297802
 H       -3.578921610     3.389067522     0.610073613
 H       -2.692754899     1.124597432     0.614614163
 H       -3.377173874     5.692176581     0.303360527
 H       -0.609076273     6.764894936    -0.574386110
 H       -0.413296603     9.071263690    -0.882228872
 H       -1.306224183    11.333249185    -0.888098366
 H       -5.164814426     9.762989909     0.376699469
 H       -4.235677850     7.518245881     0.341508027
 H       -6.055326757    13.292238235     1.010992622
 H       -4.247173995    11.212423888     2.486128066
 H       -4.800824491    10.609653714     4.617190864
 H       -6.211453761    10.718146428     6.601937696
 H       -8.934519747    13.338744708     4.493196716
 H       -7.400218744    13.373603736     2.587559317
 H      -10.581652806    12.219221902     7.471024336
 H      -10.410072146    11.638235108     5.788327365
 H      -10.104285478    13.359190056     6.200370456
 H       -9.435491832     6.380305127     7.385724207
 H       -8.265745325     7.209204383     6.318522428
 H       -9.674996376     6.354908489     5.623179972
 H      -12.408860815     9.354633190     5.933252420
 H      -12.882882181    10.652751605     3.874791209
 H       -8.885430746     9.863966501     2.464495089
 H       -8.431249454     8.540251214     4.484401583
 H      -12.273931039    11.518017771     1.841439252
 H       -9.370280178    10.947442350     0.835684658
 H       -9.175185867    13.886967796     1.203255786
 H       -7.389714603    15.517490982     0.922748241
 H       -7.666365806    15.144761792    -3.357828443
 H       -9.427876149    13.480089213    -3.124050897
 H       -6.080803544    16.626714761    -2.481101824
 H       -5.956079961    16.864563104     0.604842449
 H       -4.600706478    17.984446806    -2.784292575
 H       -2.821351792    19.619007959    -3.029626208
 H       -2.603577308    19.974551604     1.302594217
 H       -4.386662684    18.332506973     1.501434556
 H       -7.301157898    11.362464711     8.335625606
 H       -9.022562752    11.384728622     8.759768890
 H       -8.009521120     9.463023152     6.576467677
 H       -7.734280763     9.065154641     8.269157600
 H       -9.959342252     8.482201660     8.636804888
 H      -10.586706894     9.877398794     7.730366073
 H        2.263200806    -1.028977439     0.055733532
 H        2.260659357     0.556437430     0.869305039
 H        2.275323578     0.465920637    -0.913074703
 H       -0.259920150    22.581558044    -2.857134869
 H       -1.990474124    22.260267088    -3.133061311
 H       -0.778915991    20.998620108    -3.488232066
 H       -1.612721175    22.164914278     1.185080179
 C       -0.494003797    23.708766913     0.150252808
 C       -2.946930503    23.268587708    -0.121850428
 H        1.229566538    21.149106221    -0.693905461
 C        0.482710935    19.962277808     0.964985253
 C        0.778704005    19.135420337    -1.376523791
 H      -11.089575794    11.756514310    -3.065764735
 C       -9.613966020    10.316529213    -2.381588700
 C      -12.085432977    10.130589316    -2.027800509
 H      -13.209993854    12.468212893    -0.257114414
 C      -12.409135593    14.290659900     0.617451195
 C      -12.871107329    13.940218254    -1.816854867
 H       -1.948997802    13.511739992    -0.904172641
 C       -3.117835940    15.162322490    -0.130339929
 C       -1.864624294    13.515177566     1.270220405
 H       -5.461222826    13.791648978    -1.707749225
 C       -4.095022959    12.814519983    -3.085384133
 C       -6.130336733    11.757522277    -2.073196926
 H       -0.132530254    -1.936541080    -1.514338846
 C       -2.144056790    -1.118971964    -1.574572926
 C       -0.188757879    -0.228257364    -2.855782183
 H       -1.779594640    -0.912889593     1.441089130
 C       -0.185844741    -2.370955047     1.635964525
 C       -0.300291522    -0.180362256     2.849001941
 H        0.503494650    23.330451036     0.408786225
 H       -0.734523873    24.477253336     0.899441395
 H       -0.414260433    24.232886066    -0.811353421
 H       -3.782926792    22.555803208    -0.080642319
 H       -2.993996210    23.777545218    -1.093701719
 H       -3.158742615    24.033857065     0.638591500
 H        0.324930089    20.803065051     1.652218072
 H        1.472585888    19.549694646     1.209426937
 H       -0.245474281    19.178293229     1.216901614
 H        0.849173103    19.356176056    -2.449322766
 H        0.058496564    18.313931231    -1.252187400
 H        1.758511280    18.732977278    -1.081489195
 H       -8.727883283    10.951352213    -2.523854771
 H       -9.702232919     9.705949820    -3.291519152
 H       -9.394196323     9.616414829    -1.563124866
 H      -13.062544675    10.624039432    -1.949327231
 H      -11.984892748     9.451529729    -1.168937215
 H      -12.137374441     9.489941182    -2.919960167
 H      -12.139201181    13.872462498     1.596798282
 H      -13.404640881    14.740753275     0.736951512
 H      -11.719497305    15.122353821     0.412156246
 H      -13.011051020    13.245774224    -2.655196636
 H      -12.169952041    14.721666486    -2.142510660
 H      -13.839115261    14.441209559    -1.669984434
 H       -3.631610256    15.401071796    -1.071711373
 H       -2.255499309    15.842773016    -0.076685689
 H       -3.785409855    15.450374893     0.693551278
 H       -1.437985754    12.509986026     1.386339222
 H       -2.473764721    13.719878548     2.162697846
 H       -1.018891199    14.216004300     1.305986659
 H       -3.315170420    13.585173091    -3.028719523
 H       -4.697097292    13.050710628    -3.974354733
 H       -3.603298947    11.854408511    -3.293952664
 H       -6.846400722    11.712926633    -1.239072738
 H       -5.765600254    10.738590045    -2.260043975
 H       -6.711738563    12.049693465    -2.959768689
 H       -2.523479200    -1.690195348    -0.717969821
 H       -2.432899182    -1.685144334    -2.472083628
 H       -2.698311538    -0.170744942    -1.620437591
 H        0.898723345    -0.118198341    -2.954799063
 H       -0.637038790     0.768214228    -2.979260230
 H       -0.517111295    -0.822170419    -3.720771588
 H       -0.464044826    -2.975292962     0.762937722
 H       -0.650042910    -2.857225028     2.506302065
 H        0.899306996    -2.464266044     1.775421270
 H       -0.654716831     0.860058482     2.876616794
 H        0.778330738    -0.167406709     3.054326182
 H       -0.771654878    -0.688161216     3.702420455

