187   

Si        0.000000000     0.000000000     0.000000000
 C        1.864712445     0.000000000     0.000000000
 C       -0.679933706     1.710547302     0.000000000
 C        0.096441717     2.790520684     0.432590055
 C       -0.424613975     4.084068911     0.430122604
 C       -1.729878579     4.326188737    -0.005104000
 C       -2.508088921     3.242903238    -0.434151137
 C       -1.992679283     1.950038097    -0.427658348
 C       -2.318004530     5.660945883    -0.025818717
 C       -1.687389029     6.782557282     0.361692409
 C       -2.287119692     8.111780807     0.336008341
 C       -1.524997899     9.205356462     0.766847679
 C       -2.058689774    10.492131396     0.758862171
 C       -3.379479502    10.704872806     0.350658702
 C       -4.147394871     9.612544703    -0.070377524
 C       -3.603083923     8.330363058    -0.082607587
Si       -4.138271659    12.377705454     0.318825854
 C       -5.906688696    12.207979132     0.752198749
 C       -6.920433108    12.732721498     0.053397789
 C       -8.332184312    12.586199536     0.416157231
 C       -9.295069356    13.189221751    -0.406877881
 C      -10.645687383    13.084066154    -0.113157376
 C      -11.058920333    12.376193571     1.027100204
 C      -10.105190164    11.779594207     1.858602019
 C       -8.752200167    11.890100244     1.552427445
 N      -12.475929050    12.321910271     1.248141181
 C      -13.106045230    11.237000093     0.460011462
 C      -12.864797239    12.303482100     2.669757507
 C      -12.780728725     9.814936608     0.954662359
 C      -12.453442697     8.824627415    -0.178632899
 N      -11.050307437     8.792850571    -0.622756552
 C      -10.055340002     8.452595417     0.307677681
 C      -10.378871974     7.896391474     1.562524977
 C       -9.377461374     7.569045262     2.463690020
 C       -8.024544209     7.673688652     2.117374844
 C       -7.702085833     8.187165666     0.857293184
 C       -8.691317529     8.584165608    -0.030817189
 C      -10.702898760     9.842466535    -1.595172714
 C       -7.020738346     7.311747425     3.117378559
 C       -5.695231267     7.361337062     2.929439918
Si       -4.491533409     6.892939044     4.226891283
 C       -5.185190277     7.230878073     5.900558817
 C       -6.008417312     8.349282975     6.084355524
 C       -6.549310996     8.633866182     7.336494543
 C       -6.271531417     7.816671840     8.436283647
 C       -5.440611094     6.704200401     8.252886052
 C       -4.900740340     6.415652844     7.001407011
 C       -6.815500912     8.076084053     9.765119980
 C       -7.622286004     9.105561174    10.073847115
 C       -8.166687884     9.365733866    11.402310757
 C       -7.892962628     8.549067562    12.502495873
 C       -8.434921732     8.835026295    13.755512124
 C       -9.271513009     9.941269274    13.933270874
 C       -9.549264745    10.760923814    12.830831245
 C       -9.001324706    10.477008861    11.583088504
Si       -9.994666404    10.332335800    15.580104896
 C       -9.788832468     8.913591083    16.773800302
 C       -9.134510427    11.869128684    16.302811737
 C      -11.841465617    10.727887320    15.341398516
 C       -4.111054351     5.030892912     4.107115480
 C       -2.897043224     7.879448449     3.946321106
 C       -3.311402154    13.530955258     1.583025897
 C       -3.910911116    13.108884020    -1.421033128
 C       -0.652017477    -0.920778905    -1.533034119
 C       -0.629114841    -0.899620923     1.555230630
 H        1.125452542     2.662488881     0.779535072
 H        0.199773589     4.907846573     0.771217334
 H       -3.528579399     3.410209143    -0.774975899
 H       -2.647472691     1.143530262    -0.769592066
 H       -3.348634002     5.700198068    -0.393985820
 H       -0.658164213     6.747830050     0.728198533
 H       -0.502072833     9.052807935     1.104632204
 H       -1.415120682    11.310275446     1.091519890
 H       -5.186238854     9.726971987    -0.400546591
 H       -4.215234090     7.495206721    -0.420141518
 H       -6.085674952    11.619989856     1.669061022
 H       -6.771678062    13.324346003    -0.859300250
 H       -8.981590156    13.748677271    -1.287687618
 H      -11.393386932    13.560305285    -0.745240221
 H      -10.410015664    11.224857684     2.742509106
 H       -8.019945926    11.409951905     2.204849334
 H      -13.954446495    12.466950084     2.733572278
 H      -12.373875466    13.146161344     3.187590469
 H      -12.621455981    11.374786235     3.207213346
 H      -11.581983537    10.128330715    -2.192975694
 H       -9.949414135     9.446375438    -2.300233709
 H      -10.296650371    10.753072314    -1.117725865
 H      -11.412100694     7.725686912     1.845448984
 H       -9.655517014     7.190980644     3.448638751
 H       -6.654865726     8.289021097     0.566734749
 H       -8.402306830     8.996775470    -0.992472049
 H       -7.468532139     6.987578704     4.068939837
 H       -5.256039019     7.678599577     1.971739871
 H       -6.256617805     9.028278717     5.260430568
 H       -7.191557642     9.504786701     7.451956538
 H       -5.210767142     6.056050008     9.096039266
 H       -4.257542631     5.535289646     6.920621487
 H       -6.516873413     7.353957507    10.530724621
 H       -7.920279106     9.827536266     9.308030539
 H       -7.249134060     7.678738918    12.389681498
 H       -8.182714862     8.160629530    14.578507522
 H      -10.197162263    11.638454954    12.909752919
 H       -9.226993547    11.126202433    10.739288128
 H      -14.204197402    11.412331239     0.481827911
 H      -12.793312537    11.368072544    -0.599401269
 H      -11.924267830     9.855750881     1.660112083
 H      -13.627169347     9.424045086     1.547865662
 H      -12.715429903     7.787798409     0.146268835
 H      -13.095952495     9.025347358    -1.065031838
 H        2.262399298    -1.029388402    -0.051973187
 H        2.276479521     0.469558650     0.910310784
 H        2.259445204     0.552890636    -0.871958839
 H      -10.267103211     9.137208284    17.744085392
 H       -8.724534476     8.695170807    16.970233727
 H      -10.255130261     7.992823848    16.378741330
 H       -9.579840673    12.012283982    17.329602242
 C       -7.615762800    11.673473177    16.463807076
 C       -9.382467330    13.154217878    15.492878872
 H      -11.879447030    11.622309502    14.653697869
 C      -12.606841194     9.578610059    14.660902150
 C      -12.562427876    11.106791137    16.647276758
 H       -3.399997366     4.810303545     4.955328336
 C       -5.371537886     4.167012942     4.297807332
 C       -3.423599111     4.618177342     2.798267705
 H       -2.594435317     7.667501373     2.876231213
 C       -3.120804026     9.395709501     4.082125773
 C       -1.734991744     7.456121341     4.859874880
 H       -2.217112955    13.560413411     1.308797095
 C       -3.853853681    14.970199933     1.525038225
 C       -3.427627095    13.012349378     3.026946626
 H       -4.473447109    14.086940193    -1.425823597
 C       -2.439209459    13.405223783    -1.760729506
 C       -4.501149811    12.209616309    -2.522672838
 H       -1.776698728    -0.929376359    -1.435566092
 C       -0.298388165    -0.201719601    -2.847454723
 C       -0.177502864    -2.382484929    -1.617854282
 H       -0.158771570    -1.924561744     1.529713648
 C       -0.190890541    -0.204435880     2.857407893
 C       -2.158144031    -1.075202464     1.580600897
 H       -7.350347798    10.819008339    17.099490259
 H       -7.169863676    12.559397288    16.938300169
 H       -7.097708915    11.546114610    15.502215960
 H      -10.444713922    13.412776995    15.399178708
 H       -8.954668773    13.109955389    14.481320583
 H       -8.901990539    14.009487419    15.990274319
 H      -12.181940835     9.290782182    13.688498328
 H      -13.645295176     9.881058750    14.464568303
 H      -12.660434296     8.672738519    15.279155895
 H      -12.114019895    11.969235631    17.157207550
 H      -12.607630011    10.278794434    17.367079900
 H      -13.604814086    11.384414837    16.433260619
 H       -5.889730000     4.351431654     5.248365508
 H       -5.101807612     3.101670204     4.294606035
 H       -6.105504784     4.302307581     3.490169852
 H       -2.478229312     5.147138506     2.614232413
 H       -4.061108339     4.762085350     1.915000297
 H       -3.170593145     3.548168241     2.821242446
 H       -3.886993397     9.780294669     3.392608274
 H       -2.192304975     9.932383260     3.839100980
 H       -3.399673282     9.699855071     5.099994312
 H       -1.455412284     6.400808535     4.743975796
 H       -1.940500815     7.634038341     5.924349430
 H       -0.835855152     8.040880204     4.618601753
 H       -3.722880903    15.447355482     0.545443728
 H       -3.318625685    15.603265038     2.247512896
 H       -4.919033350    15.037860001     1.789139842
 H       -3.010102718    12.004699388     3.163777509
 H       -4.463479217    12.996600178     3.394504899
 H       -2.870524371    13.669907123     3.709578895
 H       -1.972468552    14.129941483    -1.081218024
 H       -2.365708829    13.839431826    -2.768514172
 H       -1.811286633    12.503023704    -1.771650046
 H       -5.564599483    11.975283817    -2.377708630
 H       -3.964096116    11.255357253    -2.624834343
 H       -4.424843074    12.709756322    -3.498351778
 H       -0.653918592     0.837952716    -2.883294800
 H       -0.768671055    -0.716452313    -3.697433963
 H        0.780301295    -0.189023748    -3.052867019
 H       -0.460426273    -2.982949630    -0.743614817
 H        0.908805869    -2.473849459    -1.749314933
 H       -0.634107674    -2.874817496    -2.488904875
 H        0.898171898    -0.113532532     2.958186531
 H       -0.531554213    -0.785069356     3.726807515
 H       -0.621842465     0.800760399     2.970954240
 H       -2.544074722    -1.653333232     0.731484563
 H       -2.698249553    -0.118055825     1.610102063
 H       -2.458177195    -1.624015292     2.485254664

