187   

Si        0.000000000     0.000000000     0.000000000
 C        1.865850026     0.000000000     0.000000000
 C       -0.667721427     1.715810985     0.000000000
 C        0.177141197     2.816615427    -0.173289858
 C       -0.337166232     4.112901405    -0.171949611
 C       -1.706249431     4.338912019    -0.007557929
 C       -2.551957291     3.234742898     0.163778314
 C       -2.040646072     1.939776097     0.170307416
 C       -2.285304387     5.678545458    -0.000071951
 C       -1.580041322     6.812966712    -0.147138932
 C       -2.148270051     8.156679295    -0.141245475
 C       -1.286754350     9.249364074    -0.306279309
 C       -1.780028773    10.551532968    -0.307931148
 C       -3.151980936    10.789322866    -0.164200146
 C       -4.015574442     9.700140491    -0.003232540
 C       -3.516251411     8.398457290     0.013600776
Si       -3.825846755    12.501070740    -0.163513217
 C       -5.501387975    12.494529594    -0.887083717
 C       -6.618120585    13.037490436    -0.384353894
 C       -7.917892184    12.970420151    -1.057221985
 C       -9.041134805    13.563630648    -0.466826158
 C      -10.285936444    13.516596827    -1.080283531
 C      -10.463553396    12.801069030    -2.279966620
 C       -9.335827278    12.191156973    -2.868511098
 C       -8.088788722    12.299144156    -2.273381261
 N      -11.700029048    12.719341382    -2.944249883
 C      -12.895152206    13.292316068    -2.315260882
 C      -11.962753852    11.464737304    -3.672254530
 C      -13.440014471    12.492081592    -1.119284555
 C      -14.802115260    13.023808940    -0.636271040
 N      -14.848776570    14.456597402    -0.266955395
 C      -13.695302768    14.918532912     0.419350676
 C      -13.370924924    14.292275747     1.639006723
 C      -12.257044828    14.699861280     2.354018558
 C      -11.437856458    15.737415185     1.882783237
 C      -11.776119296    16.367716584     0.683688091
 C      -12.901449845    15.981149465    -0.036325057
 C      -15.348636443    15.323005121    -1.347360486
 C      -10.272666849    16.129568899     2.676959023
 C       -9.421830496    17.103610957     2.327520451
Si       -7.969138770    17.585419261     3.327257280
 C       -8.241238461    17.305754328     5.124260039
 C       -9.520965067    17.474798606     5.665294724
 C       -9.748452170    17.267802161     7.024758872
 C       -8.702735763    16.898826873     7.875854316
 C       -7.420915488    16.738796512     7.333692050
 C       -7.190695836    16.942520882     5.975228938
 C       -8.895645919    16.672007982     9.304444411
 C      -10.071395681    16.792279924     9.944096009
 C      -10.269316567    16.566618170    11.371951702
 C       -9.229854665    16.195379954    12.228627565
 C       -9.465095871    15.990062790    13.588060401
 C      -10.749147536    16.146292261    14.119381485
 C      -11.793448878    16.518575441    13.262070752
 C      -11.554508962    16.728432401    11.906876232
Si      -11.075545533    15.878878611    15.911378048
 C       -9.669830979    14.972573753    16.736965153
 C      -11.308943754    17.563301265    16.766474699
 C      -12.690121455    14.885471792    16.085132820
 C       -6.534031423    16.481084263     2.737812329
 C       -7.549684154    19.406118540     3.001659514
 C       -3.830930798    13.113487204     1.636622017
 C       -2.731942454    13.662504196    -1.198430556
 C       -0.603041684    -0.928325298    -1.548479699
 C       -0.666266903    -0.892757441     1.542729365
 H        1.256189753     2.704112757    -0.310361615
 H        0.343255035     4.952236498    -0.304063654
 H       -3.621364348     3.388403253     0.295177758
 H       -2.748024020     1.118173980     0.313962338
 H       -3.369755367     5.709436993     0.138008055
 H       -0.495040399     6.777876660    -0.284969521
 H       -0.218711111     9.082093467    -0.430603353
 H       -1.059793478    11.364538303    -0.432051524
 H       -5.097162509     9.830018396     0.111258129
 H       -4.205875320     7.566728584     0.144766126
 H       -5.522887245    11.970748479    -1.860137601
 H       -6.645942093    13.573917291     0.572881941
 H       -8.941364884    14.092393927     0.483866241
 H      -11.122990561    14.024650583    -0.604989224
 H       -9.430695011    11.652449750    -3.805868926
 H       -7.231070565    11.835928694    -2.764262351
 H      -13.025151358    11.386996776    -3.951726052
 H      -11.692078232    10.566316173    -3.093501500
 H      -11.380650583    11.469122723    -4.612434867
 H      -16.346536560    14.965556244    -1.656128510
 H      -14.704015469    15.369088778    -2.237950729
 H      -15.485909531    16.347363012    -0.955878074
 H      -14.003911389    13.492913573     2.016616216
 H      -12.015414528    14.205948831     3.295875183
 H      -11.156061174    17.178659904     0.298607261
 H      -13.140031138    16.499063634    -0.960422416
 H      -10.165260955    15.549267001     3.604412590
 H       -9.543253279    17.663179591     1.387634011
 H      -10.378106787    17.767041324     5.049050164
 H      -10.754111777    17.399962938     7.420120489
 H       -6.592645226    16.453117701     7.979266218
 H       -6.169112998    16.806337070     5.610069257
 H       -7.991326370    16.386292466     9.849329507
 H      -10.975028756    17.078478483     9.397465099
 H       -8.222152543    16.063139631    11.839093008
 H       -8.612209291    15.701260091    14.208515934
 H      -12.817449512    16.655544048    13.620996894
 H      -12.377987556    17.019100576    11.257268169
 H      -12.651425251    14.336414908    -2.004180795
 H      -13.678141473    13.383309496    -3.103349470
 H      -13.540753229    11.424576533    -1.388822314
 H      -12.705781109    12.513688750    -0.288230032
 H      -15.581043323    12.822922158    -1.402966166
 H      -15.111286218    12.453989695     0.273434754
 H        2.264074621    -1.029660527     0.039130368
 H        2.263078776     0.541875468     0.877394098
 H        2.273561925     0.479766405    -0.907062570
 H       -9.894238807    14.774064253    17.800246572
 H       -8.730128636    15.550843157    16.697959947
 H       -9.486838201    13.997859997    16.249120423
 H      -11.452588136    17.332608998    17.861605344
 C      -10.073300271    18.471558735    16.628310838
 C      -12.546397109    18.336025283    16.275925306
 H      -13.495560594    15.518978396    15.611404230
 C      -12.641411509    13.544680503    15.330388462
 C      -13.096444236    14.623823952    17.546332433
 H       -5.615710190    16.828431709     3.291208699
 C       -6.789345924    15.006504304     3.095605070
 C       -6.255928239    16.594641338     1.229586495
 H       -7.372730997    19.495543808     1.890657942
 C       -8.709060576    20.346615054     3.377506477
 C       -6.273654647    19.869783369     3.726205007
 H       -4.384441334    14.098108597     1.628432352
 C       -4.572441278    12.143229911     2.574573734
 C       -2.422612325    13.367675883     2.201733015
 H       -1.706595649    13.629308817    -0.728817488
 C       -2.600517211    13.203253166    -2.661453824
 C       -3.218767753    15.122856228    -1.172878704
 H       -0.089909223    -1.933029830    -1.517529725
 C       -2.122293383    -1.172688125    -1.577440611
 C       -0.192977302    -0.223212432    -2.854594403
 H       -1.790913081    -0.880812938     1.443507851
 C       -0.217134891    -2.361247177     1.644929593
 C       -0.301949383    -0.164377267     2.849145083
 H       -9.156987508    18.026647999    17.037076980
 H      -10.231540151    19.409467689    17.179845085
 H       -9.868363049    18.758459050    15.586782700
 H      -13.487425620    17.791376544    16.423818740
 H      -12.481466206    18.616629738    15.215097405
 H      -12.646775394    19.277744714    16.835201214
 H      -12.407691121    13.656251552    14.261839939
 H      -13.620960809    13.048176796    15.379928680
 H      -11.915471458    12.838852963    15.755373106
 H      -13.218941877    15.542154420    18.135018409
 H      -12.386680554    13.977078662    18.078984328
 H      -14.066549196    14.106772541    17.578851431
 H       -6.970736318    14.836872427     4.166138366
 H       -5.908979931    14.399006081     2.839936336
 H       -7.639205569    14.573378558     2.547748320
 H       -6.016141465    17.614780408     0.905008450
 H       -7.091286243    16.235425901     0.610338978
 H       -5.387443227    15.976716463     0.957172774
 H       -9.645406624    20.117962308     2.850685322
 H       -8.453635243    21.383333043     3.115552585
 H       -8.926143493    20.348260924     4.455476916
 H       -5.379123169    19.301965494     3.440071622
 H       -6.362520614    19.825542781     4.821207461
 H       -6.061643189    20.920337600     3.479473460
 H       -5.612417727    11.952227166     2.274458645
 H       -4.610792728    12.553939169     3.593646238
 H       -4.072131065    11.167287799     2.659773437
 H       -1.856366769    14.121277996     1.639956871
 H       -1.810296703    12.456133667     2.250834476
 H       -2.493794878    13.743569631     3.232808667
 H       -2.226327581    12.175210587    -2.764964730
 H       -1.885764825    13.844949316    -3.195812110
 H       -3.547001825    13.269019525    -3.216101541
 H       -3.244372188    15.554974996    -0.164211311
 H       -4.216673439    15.248694060    -1.617412063
 H       -2.539308024    15.756135024    -1.760967424
 H       -2.490565265    -1.736114841    -0.710881184
 H       -2.389495718    -1.766028048    -2.464149638
 H       -2.702548798    -0.242050253    -1.647713991
 H        0.891407362    -0.086381821    -2.955142739
 H       -0.664649467     0.762894220    -2.973721844
 H       -0.508537060    -0.821709021    -3.721113687
 H       -0.506102242    -2.966017743     0.775718507
 H       -0.685383591    -2.836739444     2.519078244
 H        0.867031948    -2.468935722     1.781731979
 H       -0.642908551     0.880680644     2.872497688
 H        0.776537942    -0.165152449     3.055149640
 H       -0.780889480    -0.662176733     3.704331455

