187   

Si        0.000000000     0.000000000     0.000000000
 C        1.865494339     0.000000000     0.000000000
 C       -0.680293291     1.710283912     0.000000000
 C        0.141749040     2.816535325    -0.235969360
 C       -0.387296312     4.107196322    -0.233040681
 C       -1.748483794     4.321004201    -0.001567062
 C       -2.571553823     3.210966024     0.232022179
 C       -2.045908403     1.922069041     0.233766486
 C       -2.346072038     5.652083517     0.010880309
 C       -1.671574728     6.796246221    -0.193923389
 C       -2.270247534     8.126996442    -0.181255588
 C       -3.632651278     8.337324000     0.050689480
 C       -4.163661730     9.626313443     0.054095057
 C       -3.338258800    10.735022292    -0.161837446
 C       -1.972610400    10.528439818    -0.392819623
 C       -1.447771096     9.238518990    -0.406689118
Si       -4.029163335    12.439248359    -0.159240871
 C       -2.704194709    13.650462749     0.179287450
 C       -2.457044667    14.749820512    -0.544431525
 C       -1.389387942    15.707110093    -0.254795617
 C       -1.242932196    16.819504614    -1.098913354
 C       -0.252363179    17.756271345    -0.873969879
 C        0.689410949    17.579690569     0.164905094
 C        0.548023292    16.460201740     1.004596913
 C       -0.494682352    15.560269575     0.806112819
 N        1.687567958    18.547934372     0.372785385
 C        2.203528945    19.280619921    -0.799374378
 C        2.741434213    18.221766356     1.346491662
 C        2.365440554    20.782724442    -0.486784786
 C        1.062956454    21.438527239     0.017031564
 N       -0.036438995    21.240717344    -0.946221302
 C       -1.303199533    20.887739973    -0.450609972
 C       -1.406098578    20.112356524     0.726538484
 C       -2.640758692    19.753270632     1.232509638
 C       -3.823515533    20.080721037     0.550572453
 C       -3.722271076    20.810572878    -0.634683426
 C       -2.487894479    21.209275220    -1.137999729
 C        0.001892344    22.202979113    -2.058532944
 C       -5.100495700    19.673310837     1.136464994
 C       -6.297203915    19.922369617     0.589401615
Si       -7.907134266    19.426974198     1.296363370
 C       -9.045410926    20.870718664     1.336815683
 C       -8.533105563    22.172180944     1.306987804
 C       -9.391127574    23.270848750     1.337418505
 C      -10.775619549    23.094209975     1.409702739
 C      -11.285524424    21.789520241     1.446189614
 C      -10.432086384    20.689843423     1.411249177
 C      -11.711053164    24.213667640     1.443810425
 C      -11.355204324    25.509237949     1.414748815
 C      -12.290594333    26.628623737     1.448855096
 C      -13.675035360    26.452787158     1.516460379
 C      -14.533237650    27.551905609     1.547078426
 C      -14.023230245    28.853599398     1.517556222
 C      -12.634780728    29.032939007     1.450820350
 C      -11.781280611    27.933872893     1.414698077
Si      -15.142237616    30.314587694     1.557317630
 C      -16.885339116    29.831703836     2.013915843
 C      -14.451850681    31.559822159     2.820968523
 C      -15.167578254    31.141966288    -0.156859501
 C       -8.644281569    18.045508058     0.216420672
 C       -7.697491077    18.755918452     3.064804434
 C       -4.844455830    12.774377604    -1.846011192
 C       -5.360329774    12.601608285     1.189847455
 C       -0.605617132    -0.927661186    -1.548079752
 C       -0.659379404    -0.899994945     1.542319071
 H        1.213726621     2.712357402    -0.424784924
 H        0.274792250     4.951621050    -0.415819777
 H       -3.634612445     3.355424962     0.415162680
 H       -2.736283855     1.095647119     0.424933587
 H       -3.422550821     5.668064191     0.204772125
 H       -0.595127051     6.780733720    -0.388280843
 H       -4.293168118     7.490999154     0.228702715
 H       -5.236969961     9.728235782     0.235808226
 H       -1.282475017    11.360296903    -0.569237217
 H       -0.384915450     9.095850705    -0.592120362
 H       -2.100840389    13.406170875     1.068244847
 H       -3.048476370    15.022940518    -1.429472422
 H       -1.937799695    16.967973997    -1.926535784
 H       -0.211530094    18.647603762    -1.502130726
 H        1.239175641    16.285270488     1.821029346
 H       -0.594627633    14.714063088     1.486968886
 H        3.450566618    19.061677481     1.430400395
 H        3.308817672    17.313151488     1.086291138
 H        2.286864598    18.085149376     2.344624659
 H        1.045519931    22.396029710    -2.356398534
 H       -0.473695916    23.167406290    -1.815452123
 H       -0.506477397    21.765999512    -2.937293100
 H       -0.503605267    19.779323650     1.241594532
 H       -2.689486344    19.176685661     2.157242923
 H       -4.624819542    21.077941546    -1.185715268
 H       -2.459817937    21.778418355    -2.059987104
 H       -4.983134988    19.132543227     2.085909237
 H       -6.384232280    20.457202858    -0.370011276
 H       -7.457328839    22.370963781     1.255295262
 H       -8.969506736    24.273854560     1.307202241
 H      -12.360534743    21.630650333     1.502467333
 H      -10.886482856    19.695944014     1.440918463
 H      -12.765463302    23.927192501     1.496745466
 H      -10.300675744    25.795602905     1.362263763
 H      -14.097320665    25.449996362     1.544816375
 H      -15.606824184    27.350822377     1.598638691
 H      -12.179245486    30.026927035     1.426232232
 H      -10.705948743    28.093163298     1.361426539
 H        3.177711582    18.860253368    -1.133731045
 H        1.507874335    19.179047380    -1.665874883
 H        3.149714073    20.931995732     0.278454033
 H        2.721321346    21.292569403    -1.401356579
 H        0.807468668    20.988938155     1.005921908
 H        1.236783991    22.521154605     0.204957472
 H        2.263059679    -1.029775403     0.042183930
 H        2.262278414     0.544647646     0.875953664
 H        2.274240319     0.477353867    -0.907821484
 H      -17.540359421    30.718812481     2.078646580
 H      -16.912051583    29.327413360     2.996970436
 H      -17.327680055    29.145481374     1.270719686
 H      -13.420977866    31.834968908     2.452238451
 C      -15.277622642    32.854675401     2.921194600
 C      -14.301527754    30.950224432     4.226510099
 H      -15.911752600    31.986274931    -0.076275977
 C      -13.812424323    31.740087929    -0.574984382
 C      -15.647473830    30.186789846    -1.265059856
 H       -9.650148897    17.801062915     0.664951217
 C       -8.870102382    18.489982851    -1.239538779
 C       -7.793512291    16.763317358     0.226143384
 H       -6.909529904    17.950207704     2.999304108
 C       -7.202573258    19.833364453     4.046817164
 C       -8.979572834    18.121266802     3.632673676
 H       -5.151921167    13.860443913    -1.831680845
 C       -3.871064188    12.566268607    -3.020429386
 C       -6.105104688    11.926737302    -2.093124094
 H       -6.132702228    11.811126887     0.963358520
 C       -4.807964701    12.333931052     2.601077185
 C       -6.061541348    13.971235177     1.173857247
 H       -0.097586497    -1.934780384    -1.516273926
 C       -2.126371974    -1.163088098    -1.574962145
 C       -0.192807866    -0.225824434    -2.854959490
 H       -1.784123442    -0.895251301     1.445115477
 C       -0.201068964    -2.365829666     1.641481801
 C       -0.297573241    -0.171490959     2.849377372
 H      -15.368323498    33.387448004     1.965794125
 H      -14.794476289    33.554619521     3.618503775
 H      -16.291398852    32.687391536     3.308474562
 H      -13.675867415    30.046197674     4.242726252
 H      -15.264152555    30.694222007     4.688592242
 H      -13.816665516    31.670916268     4.900384732
 H      -13.433133625    32.494053676     0.126278536
 H      -13.909782599    32.246861795    -1.546225067
 H      -13.032164080    30.977062356    -0.705936657
 H      -16.651138889    29.780142425    -1.086291241
 H      -14.967203086    29.337019791    -1.420757833
 H      -15.698706973    30.719297676    -2.225580801
 H       -9.505140509    19.382377203    -1.328800493
 H       -9.379093740    17.694612608    -1.801974447
 H       -7.932335513    18.694609893    -1.774352836
 H       -7.669522144    16.333573346     1.228697232
 H       -6.789937903    16.912695098    -0.199604973
 H       -8.276308877    15.988019004    -0.385777313
 H       -6.265335211    20.314996566     3.735543387
 H       -7.008287451    19.386280487     5.031680631
 H       -7.941376373    20.630900305     4.211072952
 H       -9.346491664    17.274193503     3.039364065
 H       -9.803623525    18.840824651     3.737146286
 H       -8.788613321    17.728571410     4.641960223
 H       -2.955191193    13.168498917    -2.944460129
 H       -4.352420622    12.853485601    -3.965621815
 H       -3.564022598    11.517078682    -3.137876120
 H       -6.895069031    12.093003931    -1.349785663
 H       -5.896242040    10.848270975    -2.126501343
 H       -6.543688749    12.181987048    -3.068724509
 H       -4.323974556    11.352307522     2.700258321
 H       -5.626082603    12.347416965     3.334982403
 H       -4.086387377    13.094916884     2.929054141
 H       -6.562227899    14.190032517     0.221699291
 H       -5.376815774    14.804900217     1.390439824
 H       -6.841313579    14.002749311     1.948231044
 H       -2.495842667    -1.728570954    -0.710257644
 H       -2.399028720    -1.750525205    -2.463898571
 H       -2.701451791    -0.228655890    -1.638986873
 H        0.891919803    -0.091549781    -2.954933769
 H       -0.662499157     0.761002779    -2.976204088
 H       -0.508962728    -0.825179163    -3.720698328
 H       -0.485748470    -2.970427551     0.770721252
 H       -0.666845041    -2.846258255     2.514248430
 H        0.883671507    -2.466954009     1.778709195
 H       -0.645254911     0.871287943     2.875103854
 H        0.781295414    -0.165489336     3.053403187
 H       -0.771511694    -0.673931858     3.704612131

