187   

Si        0.000000000     0.000000000     0.000000000
 C        1.864009839     0.000000000     0.000000000
 C       -0.673137221     1.711676158     0.000000000
 C        0.036773908     2.756860985     0.601351143
 C       -0.475556257     4.054170079     0.600198930
 C       -1.713285015     4.329257739     0.013777508
 C       -2.423960638     3.280177096    -0.582548924
 C       -1.910407836     1.987303926    -0.592764416
 C       -2.296526524     5.664443572    -0.016456876
 C       -1.734454391     6.769836282     0.500998378
 C       -2.352148280     8.090772672     0.449968932
 C       -1.688677453     9.185605357     1.017910448
 C       -2.254647523    10.459892119     0.984210948
 C       -3.496240898    10.664204374     0.375953375
 C       -4.160870395     9.571294197    -0.196564811
 C       -3.592900021     8.301248294    -0.159953964
Si       -4.332832836    12.304372197     0.275942416
 C       -6.078038202    11.861408604     0.589008877
 C       -7.171054772    12.192970794    -0.108004303
 C       -8.514710994    11.753047622     0.278037364
 C       -9.614581939    12.139201721    -0.500356952
 C      -10.900930093    11.742379302    -0.166471605
 C      -11.113687832    10.918783167     0.955759541
 C      -10.012793899    10.506169939     1.720928880
 C       -8.731841820    10.908246829     1.370893223
 N      -12.437014345    10.536017667     1.263396170
 C      -13.398345523    11.627376598     1.476570985
 C      -12.613960615     9.330628050     2.075415960
 C      -13.873654139    11.856650729     2.922716656
 C      -12.930803642    12.734199999     3.769252404
 N      -12.567400415    12.266624886     5.128304944
 C      -11.395663745    11.441412612     5.095007542
 C      -10.173479006    12.122999307     4.946213452
 C       -8.985621527    11.413514701     4.903059648
 C       -8.979458102    10.010268614     4.980994020
 C      -10.193216497     9.343610546     5.153603621
 C      -11.391159238    10.050857753     5.247473471
 C      -13.694298362    11.725174078     5.901639457
 C       -7.685375983     9.325829569     4.929039387
 C       -7.506516814     7.999776721     4.990628781
Si       -5.860095429     7.200080694     4.920558200
 C       -5.705120639     5.826793864     3.707775149
 C       -6.230067621     5.932736489     2.414853882
 C       -6.101931564     4.878641358     1.508773085
 C       -5.424917449     3.710267935     1.866136336
 C       -4.885533521     3.613529231     3.156025938
 C       -5.020158593     4.658503178     4.064259951
 C       -5.250695092     2.569568065     0.976117343
 C       -5.692016545     2.470230985    -0.289478652
 C       -5.478093092     1.289757354    -1.123013376
 C       -4.789915172     0.166269735    -0.655118152
 C       -4.596950933    -0.949144846    -1.466579018
 C       -5.060326820    -0.954400185    -2.786340938
 C       -5.740522515     0.173385006    -3.264020646
 C       -5.951257741     1.278218559    -2.440955744
Si       -4.797526723    -2.436567165    -3.846505947
 C       -3.306558044    -3.403936430    -3.276968700
 C       -6.320700839    -3.569501746    -3.773913104
 C       -4.535849211    -1.851394491    -5.638297678
 C       -4.508040017     8.465615417     4.488100812
 C       -5.511350523     6.561005976     6.683527083
 C       -3.724907476    13.484931902     1.633491719
 C       -4.052194404    13.100744480    -1.420784963
 C       -0.659894329    -0.958600770    -1.506493953
 C       -0.663370898    -0.864194783     1.564392592
 H        1.007097607     2.599421538     1.078555006
 H        0.096489846     4.852793203     1.067776099
 H       -3.391682392     3.473324281    -1.045718047
 H       -2.511400810     1.211016057    -1.079805526
 H       -3.275980361     5.717108393    -0.504850121
 H       -0.762568116     6.728806872     0.996868423
 H       -0.720092716     9.043436221     1.492109548
 H       -1.693467132    11.278193297     1.440827788
 H       -5.136748907     9.671885400    -0.686291499
 H       -4.128931383     7.467599421    -0.611386927
 H       -6.168022110    11.238816378     1.501027340
 H       -7.145070371    12.814002955    -1.008934350
 H       -9.461702723    12.766460533    -1.377787294
 H      -11.744714085    12.044980099    -0.780634368
 H      -10.155019924     9.878958289     2.599329920
 H       -7.892014277    10.566379693     1.980378686
 H      -13.672870943     9.022163785     2.039763101
 H      -12.311473529     9.444713784     3.128756838
 H      -12.018456358     8.510117886     1.632181873
 H      -14.492579092    12.486376148     5.941763833
 H      -13.356266078    11.545455255     6.938314886
 H      -14.126188035    10.791363228     5.511690863
 H      -10.174791771    13.209819460     4.871794443
 H       -8.044525717    11.954660889     4.797575898
 H      -10.210354128     8.256753115     5.237169856
 H      -12.318054815     9.513114954     5.424383303
 H       -6.844809152    10.029592612     4.830883779
 H       -8.354272655     7.306821307     5.095059358
 H       -6.760489826     6.829829186     2.078907655
 H       -6.529607060     4.976535110     0.513206476
 H       -4.345619032     2.715414550     3.451290684
 H       -4.571707408     4.521488502     5.052454960
 H       -4.690891994     1.739243341     1.425438408
 H       -6.249385784     3.282521141    -0.759060396
 H       -4.413807613     0.147020375     0.367723733
 H       -4.068807432    -1.804385417    -1.034308846
 H       -6.127039296     0.225617223    -4.285162250
 H       -6.487889455     2.140376131    -2.831070346
 H      -12.989666919    12.577481696     1.064095479
 H      -14.290196434    11.373548351     0.848905870
 H      -14.876042129    12.325859607     2.893005474
 H      -14.035337190    10.882910880     3.421978772
 H      -11.987177259    12.920779671     3.203672487
 H      -13.398008660    13.737596949     3.914207594
 H        2.266277803    -1.028251054    -0.001640291
 H        2.275225085     0.516384306     0.884623620
 H        2.255822877     0.512574373    -0.897794229
 H       -2.983011483    -4.124174614    -4.048970672
 H       -3.509914171    -3.975967417    -2.355612670
 H       -2.455171422    -2.726131915    -3.074133690
 H       -6.052248077    -4.484752960    -4.376581014
 C       -6.654754563    -4.022140377    -2.340594158
 C       -7.578822694    -2.938524021    -4.397506731
 H       -5.471931198    -1.287756511    -5.921329626
 C       -3.343773993    -0.885376459    -5.768205636
 C       -4.361008628    -3.002988539    -6.643933605
 H       -4.566825214     9.275939385     5.269810384
 C       -3.091608842     7.863990823     4.527058834
 C       -4.733162630     9.097939088     3.107792008
 H       -4.491249573     6.081038472     6.647239591
 C       -5.466633073     7.686667710     7.732059334
 C       -6.526370538     5.496958126     7.137910453
 H       -2.620101898    13.624942877     1.451192672
 C       -4.397499690    14.868199508     1.567715390
 C       -3.906748176    12.913647051     3.051878887
 H       -4.705645693    14.020982388    -1.443814006
 C       -2.594943601    13.543388743    -1.645470937
 C       -4.475999800    12.186030561    -2.584682275
 H       -1.773713695    -1.064494662    -1.344771655
 C       -0.448631949    -0.219017388    -2.838856968
 C       -0.063222239    -2.373872123    -1.620261751
 H       -0.344054362    -1.942066045     1.486450773
 C       -0.066312388    -0.281857318     2.858695584
 C       -2.199695830    -0.822212731     1.672455661
 H       -5.835485364    -4.564365342    -1.851443522
 H       -7.512251789    -4.710327675    -2.353807520
 H       -6.941920149    -3.187473622    -1.684850121
 H       -7.452873687    -2.668011678    -5.453667532
 H       -7.918531942    -2.042254575    -3.859375165
 H       -8.414782109    -3.652225620    -4.361973830
 H       -3.418257170    -0.009903317    -5.106710829
 H       -3.287521050    -0.491810754    -6.793151506
 H       -2.377827179    -1.369186169    -5.570113486
 H       -5.213605885    -3.694078049    -6.665062821
 H       -3.454516478    -3.596241057    -6.465424083
 H       -4.267638126    -2.600288478    -7.663121861
 H       -2.812378282     7.458976040     5.506881773
 H       -2.349238278     8.639633992     4.288677782
 H       -2.944790279     7.068278360     3.780726533
 H       -5.726078085     9.543236746     2.969542319
 H       -4.573257172     8.385820916     2.281758331
 H       -4.000031197     9.902701763     2.945287087
 H       -4.672606119     8.421198673     7.544988897
 H       -5.266810225     7.265833340     8.727807600
 H       -6.415557400     8.235229172     7.815857900
 H       -6.634972232     4.660676469     6.433714817
 H       -7.527932248     5.913759561     7.312681136
 H       -6.206235085     5.054385851     8.091926258
 H       -4.246879713    15.382138372     0.609622662
 H       -3.975870015    15.529402791     2.338230117
 H       -5.479799226    14.826661354     1.756736552
 H       -3.410056267    11.944667651     3.199765362
 H       -4.963259660    12.794782817     3.331084488
 H       -3.467595217    13.597855921     3.791691397
 H       -2.240584019    14.272778333    -0.906003344
 H       -2.496764459    14.029939999    -2.626854822
 H       -1.888172510    12.701335809    -1.650707303
 H       -5.524606292    11.863543499    -2.529339929
 H       -3.855787790    11.281212803    -2.662918120
 H       -4.366342850    12.716830707    -3.540851102
 H       -0.894304561     0.786281818    -2.853686651
 H       -0.926750812    -0.774319285    -3.659108020
 H        0.609855900    -0.113445415    -3.109049690
 H       -0.279240714    -3.007320730    -0.750666162
 H        1.024545219    -2.371021815    -1.769720649
 H       -0.485497183    -2.894062167    -2.492986704
 H        1.028015455    -0.349639045     2.902827978
 H       -0.441413116    -0.836790228     3.730223969
 H       -0.343326618     0.770007204     3.020639702
 H       -2.703065177    -1.321347829     0.834255926
 H       -2.588690668     0.203647089     1.749802935
 H       -2.526746992    -1.345764192     2.582222129

