187   

Si        0.000000000     0.000000000     0.000000000
 C        1.865445822     0.000000000     0.000000000
 C       -0.680192064     1.710216167     0.000000000
 C        0.150798688     2.818241155     0.193193275
 C       -0.377111922     4.108836196     0.190973502
 C       -1.744856776     4.321246586    -0.000977666
 C       -2.576388587     3.210261782    -0.193447844
 C       -2.052220918     1.920558748    -0.193713012
 C       -2.337516413     5.654498531    -0.010345820
 C       -1.641409233     6.790699970     0.161337325
 C       -2.210881689     8.132875890     0.155968064
 C       -3.574427804     8.375108190    -0.033581765
 C       -4.072618707     9.677582766    -0.030649788
 C       -3.220164253    10.762296349     0.200437850
 C       -1.854917415    10.522314320     0.399796873
 C       -1.357031860     9.223214486     0.367875520
Si       -3.861916294    12.487801093     0.207613917
 C       -2.421191169    13.610165198     0.217873302
 C       -2.220215028    14.641044384     1.048190110
 C       -1.035061602    15.499084679     0.994792118
 C       -0.917364065    16.555328280     1.910067881
 C        0.187734459    17.390846147     1.893872200
 C        1.244190147    17.151478415     0.991691073
 C        1.134368983    16.089054692     0.082628397
 C       -0.002295711    15.289365170     0.078198603
 N        2.354097572    18.036334147     1.014461227
 C        2.965726383    18.183029345     2.354439811
 C        3.363856214    17.836872275    -0.039927390
 C        3.290625474    16.848197584     3.057411473
 C        2.562980406    16.766837475     4.413083188
 N        2.819286491    15.539215075     5.169253688
 C        2.067956658    14.381822461     4.925111609
 C        0.997276970    14.346785926     4.010485465
 C        0.283658641    13.173598567     3.804536455
 C        0.574477785    12.009206137     4.527218831
 C        1.623917700    12.054150771     5.452121586
 C        2.360492050    13.210290866     5.655619133
 C        4.226225016    15.355751354     5.557268475
 C       -0.195921429    10.785326612     4.288294623
 C        0.027714978     9.637249438     4.942291003
Si       -0.848498476     8.046671414     4.747783811
 C       -1.367187884     7.408146759     6.394772381
 C       -1.428313367     8.257746997     7.503799464
 C       -1.821991554     7.767925217     8.748706674
 C       -2.172759177     6.424843020     8.909341763
 C       -2.117400965     5.577355737     7.794544831
 C       -1.721186697     6.061602483     6.551007991
 C       -2.590456788     5.868623485    10.192003455
 C       -2.686435920     6.568261597    11.335379785
 C       -3.104282367     6.010795705    12.617423510
 C       -3.451244628     4.666949106    12.778460771
 C       -3.845318747     4.175801924    14.023055371
 C       -3.907575938     5.022176848    15.134423613
 C       -3.561138547     6.370939775    14.975644503
 C       -3.162726273     6.856644620    13.733431042
Si       -4.425533566     4.389969176    16.783482759
 C       -5.182617984     2.689320134    16.660607345
 C       -2.911570730     4.302609518    17.934176629
 C       -5.679375488     5.615775711    17.524488363
 C       -2.411384748     8.235173358     3.685659520
 C        0.334525282     6.798884834     3.928686429
 C       -4.908198281    12.785568055    -1.347536942
 C       -4.936752120    12.763105175     1.751719555
 C       -0.663262701    -0.902433898    -1.538333234
 C       -0.599918725    -0.919191032     1.555808800
 H        1.228346251     2.714693398     0.348182705
 H        0.291735402     4.954056778     0.346239579
 H       -3.644486489     3.353609587    -0.345004823
 H       -2.748944563     1.092366038    -0.351087351
 H       -3.418553914     5.677930247    -0.169978504
 H       -0.557505935     6.755225190     0.316345340
 H       -4.258894508     7.545137506    -0.195921755
 H       -5.143913282     9.808318323    -0.204365594
 H       -1.141102684    11.330771759     0.592717353
 H       -0.289276679     9.059210813     0.510531897
 H       -1.690718554    13.373675035    -0.575707145
 H       -2.928855060    14.922941968     1.837161386
 H       -1.713489104    16.735796144     2.633255052
 H        0.239817099    18.236729901     2.574747010
 H        1.931650672    15.873045916    -0.621839396
 H       -0.069915065    14.475207529    -0.645211483
 H        4.073846726    18.681913231    -0.017895732
 H        2.873075980    17.862133902    -1.028908324
 H        3.933696069    16.899302578     0.054498557
 H        4.756166367    16.321567281     5.576170665
 H        4.768968195    14.673837046     4.881545317
 H        4.270094295    14.945319903     6.583252451
 H        0.739367586    15.227573548     3.426416751
 H       -0.522372950    13.168802726     3.066639090
 H        1.875029215    11.164307801     6.032592089
 H        3.160239924    13.205635000     6.388803870
 H       -0.977826328    10.898674234     3.526435159
 H        0.832752829     9.571169699     5.695875910
 H       -1.171149105     9.319793293     7.435264271
 H       -1.857390400     8.446914389     9.598527592
 H       -2.387681245     4.528574819     7.899061205
 H       -1.697557368     5.355262355     5.715793869
 H       -2.832375153     4.801972986    10.170775394
 H       -2.444966018     7.634959003    11.357071131
 H       -3.415813571     3.988264850    11.928292870
 H       -4.102778288     3.115056552    14.086865096
 H       -3.591883782     7.079196197    15.808403894
 H       -2.895797072     7.906710604    13.629997081
 H        3.884630574    18.800781876     2.258273425
 H        2.264309919    18.795988488     2.966590127
 H        2.996013296    15.984994293     2.428413777
 H        4.379553317    16.740946280     3.197133622
 H        2.871077377    17.622576614     5.060621508
 H        1.462610799    16.878839082     4.265319326
 H        2.263146330    -1.030422355    -0.023382041
 H        2.273662949     0.493503223     0.899538563
 H        2.263091957     0.528364883    -0.885389377
 H       -5.526977419     2.334466639    17.648291962
 H       -4.462198151     1.947686534    16.273486790
 H       -6.058029377     2.693631551    15.986079492
 H       -3.287680628     3.854034263    18.898761401
 C       -1.803904933     3.386786340    17.381683765
 C       -2.299113203     5.677631121    18.255702591
 H       -5.134890599     6.600958534    17.610549003
 C       -6.900998356     5.831646705    16.612949122
 C       -6.165901776     5.222270115    18.930591824
 H       -2.085833256     8.750623269     2.733939192
 C       -3.064012267     6.896462460     3.300684639
 C       -3.472017214     9.116920024     4.369774345
 H       -0.309782328     5.934639272     3.594029541
 C        1.050088215     7.371264030     2.692806927
 C        1.394334729     6.250565356     4.901362406
 H       -5.775808488    12.066626456    -1.279102605
 C       -5.477706950    14.212674086    -1.428549732
 C       -4.140011911    12.476739396    -2.645142761
 H       -5.256461950    13.844693143     1.714096339
 C       -6.205790891    11.892879620     1.777199837
 C       -4.158995951    12.536550953     3.060732456
 H       -1.787974397    -0.892808813    -1.440494677
 C       -0.299258716    -0.179833437    -2.848057169
 C       -0.210248858    -2.370197591    -1.632229185
 H       -0.078333283    -1.919680677     1.536740734
 C       -0.199885266    -0.195885472     2.855151303
 C       -2.117228257    -1.174952820     1.582406468
 H       -2.137444716     2.356195762    17.205017753
 H       -0.974745411     3.322180033    18.100762367
 H       -1.368922593     3.761021767    16.443608473
 H       -3.006261471     6.369916436    18.729759230
 H       -1.880909787     6.175556233    17.369458309
 H       -1.464669891     5.560569506    18.962488973
 H       -6.633005819     6.170501293    15.601778974
 H       -7.553469421     6.609557750    17.034340256
 H       -7.521574785     4.932154059    16.506358540
 H       -5.351686158     5.121108494    19.659757164
 H       -6.740468659     4.286634211    18.938764648
 H       -6.837635606     5.998162996    19.325875873
 H       -2.399579927     6.235150755     2.727376633
 H       -3.932714549     7.080746139     2.651043401
 H       -3.438308209     6.333829049     4.165735506
 H       -3.095152175    10.105498099     4.666625213
 H       -3.902503957     8.647333584     5.265676032
 H       -4.311071007     9.293016380     3.681013488
 H        0.357881242     7.762280178     1.935695446
 H        1.643086988     6.586659748     2.203207110
 H        1.751307089     8.179525767     2.945464485
 H        0.963567652     5.774370701     5.793158510
 H        2.097940141     7.019355867     5.247239913
 H        1.998218936     5.478886172     4.403472477
 H       -6.115067438    14.476864901    -0.574875256
 H       -6.106858497    14.316496504    -2.324395122
 H       -4.696546368    14.981764662    -1.511813570
 H       -3.740520431    11.453425057    -2.681786878
 H       -3.304429851    13.167228595    -2.823465207
 H       -4.810008199    12.574084466    -3.511477325
 H       -6.855538323    12.038035408     0.905292983
 H       -6.816350485    12.146316277     2.656523801
 H       -5.985709344    10.819013579     1.859448802
 H       -3.270840176    13.174750999     3.164577180
 H       -3.827767586    11.494135136     3.182654176
 H       -4.800106920    12.759689692     3.925057915
 H       -0.642885558     0.864077181    -2.877506447
 H       -0.775674164    -0.683385316    -3.701323792
 H        0.779496342    -0.179079001    -3.052801164
 H       -0.499957928    -2.971400275    -0.760697134
 H        0.874525709    -2.475989765    -1.765862155
 H       -0.675119806    -2.851121508    -2.505220472
 H        0.882861079    -0.046628257     2.956585564
 H       -0.510764201    -0.789098608     3.727104066
 H       -0.682353969     0.786292513     2.963415333
 H       -2.479175199    -1.745809238     0.718012959
 H       -2.704738146    -0.248442313     1.646119813
 H       -2.382056532    -1.765674759     2.471654121

