187   

Si        0.000000000     0.000000000     0.000000000
 C        1.865249647     0.000000000     0.000000000
 C       -0.680243886     1.710564491     0.000000000
 C        0.127750297     2.809889829     0.306986012
 C       -0.399804196     4.101137183     0.303519290
 C       -1.745503046     4.322164572    -0.000356263
 C       -2.554899062     3.219158685    -0.303951671
 C       -2.030933815     1.929546254    -0.303290692
 C       -2.341488556     5.653887311    -0.016468434
 C       -1.680686559     6.792756842     0.252520679
 C       -2.280487675     8.122960421     0.235340857
 C       -1.475540668     9.229959883     0.536092884
 C       -2.004699469    10.518107216     0.531940935
 C       -3.357280128    10.726733910     0.237051218
 C       -4.163967954     9.623651820    -0.063007244
 C       -3.627991518     8.336672445    -0.067990882
Si       -4.076972457    12.419580347     0.225954496
 C       -5.885037365    12.291735462     0.458583173
 C       -6.819845524    12.880937730    -0.297514023
 C       -8.259519322    12.745088040    -0.066742077
 C       -9.148017158    13.410274639    -0.926036625
 C      -10.517399714    13.313435560    -0.749832705
 C      -11.045126088    12.511399958     0.284651171
 C      -10.159292106    11.851121030     1.150414513
 C       -8.785609683    11.990887066     0.983849063
 N      -12.450207828    12.447103117     0.421125238
 C      -13.190870859    12.070284516    -0.806344363
 C      -12.967141138    11.788975277     1.632243722
 C      -12.484200527    11.070741963    -1.737161346
 C      -12.177182153     9.721273719    -1.061302456
 N      -11.057355046     8.993113595    -1.695676815
 C      -11.193577603     8.781911988    -3.087803501
 C      -12.414024590     8.269458312    -3.575723877
 C      -12.587485088     8.048478886    -4.931855204
 C      -11.546376521     8.283597678    -5.842764931
 C      -10.330306150     8.764818142    -5.352499439
 C      -10.146105844     9.008109280    -3.996248888
 C       -9.739813826     9.464931941    -1.234595959
 C      -11.783429525     8.033504098    -7.265615757
 C      -10.867049525     8.221463682    -8.224907680
Si      -11.155415748     7.911488290   -10.003408745
 C      -12.912607998     8.174639703   -10.479671779
 C      -13.683420190     9.129373179    -9.806234446
 C      -15.016189615     9.339424019   -10.156467257
 C      -15.604451133     8.612750446   -11.195462581
 C      -14.828506450     7.664410233   -11.874579346
 C      -13.498161852     7.448319880   -11.523553754
 C      -16.994895671     8.798479786   -11.596914314
 C      -17.845417484     9.671355987   -11.030667068
 C      -19.235777243     9.856232256   -11.432994323
 C      -19.824383790     9.125555575   -12.468244632
 C      -21.157770593     9.334387420   -12.820372310
 C      -21.934738251    10.275811940   -12.138177071
 C      -21.346954978    11.009438074   -11.098542953
 C      -20.014299432    10.802920505   -10.753390263
Si      -23.695762830    10.563164182   -12.590740096
 C      -24.341001766     9.226149338   -13.720206815
 C      -24.722101157    10.622146155   -10.988617187
 C      -23.857624882    12.240739983   -13.475552716
 C      -10.067143751     9.110254459   -11.002351552
 C      -10.628327295     6.128152887   -10.405896423
 C       -3.345692081    13.442074822     1.652822866
 C       -3.649138147    13.266824936    -1.421144706
 C       -0.654649560    -0.904026893    -1.542273386
 C       -0.615133773    -0.923329764     1.546597165
 H        1.187558594     2.699661925     0.552616679
 H        0.251108190     4.940166947     0.542414686
 H       -3.606020781     3.369349018    -0.543710698
 H       -2.710512427     1.108558683    -0.549033978
 H       -3.405284355     5.675028812    -0.271827712
 H       -0.617286789     6.772911743     0.507732666
 H       -0.423659442     9.084561069     0.774336475
 H       -1.329009382    11.344034383     0.770003667
 H       -5.227226217     9.729219748    -0.303790456
 H       -4.273992275     7.494200873    -0.308920069
 H       -6.164781397    11.666660245     1.323812201
 H       -6.576801378    13.515766021    -1.159254731
 H       -8.756213562    14.021076018    -1.740216101
 H      -11.193518985    13.861779371    -1.401891590
 H      -10.531570333    11.229600140     1.958707458
 H       -8.115638057    11.484654597     1.681043146
 H      -14.041523419    12.027050301     1.732018281
 H      -12.468221897    12.210164137     2.523435955
 H      -12.851561868    10.693890268     1.642697829
 H       -9.722559955     9.487626216    -0.130565879
 H       -9.473045628    10.474698578    -1.590281469
 H       -8.961979020     8.749261277    -1.553900754
 H      -13.222338872     8.046805622    -2.884517895
 H      -13.544572697     7.670599834    -5.293116682
 H       -9.504978757     8.957017233    -6.039271123
 H       -9.188606788     9.392567742    -3.657251413
 H      -12.801305038     7.676821545    -7.478244372
 H       -9.850769779     8.568074163    -7.982124655
 H      -13.274530298     9.733187819    -8.988776046
 H      -15.597083302    10.081779356    -9.612291928
 H      -15.267188072     7.088468248   -12.686977805
 H      -12.943037435     6.695244750   -12.089362932
 H      -17.321869868     8.158967043   -12.422072397
 H      -17.518731315    10.311536855   -10.205935828
 H      -19.242879709     8.383539254   -13.012342207
 H      -21.561871441     8.733486729   -13.639729338
 H      -21.905658078    11.758008695   -10.529651697
 H      -19.574979270    11.383605487    -9.944488597
 H      -14.192722665    11.679760136    -0.525253446
 H      -13.374735494    13.020102454    -1.365371540
 H      -13.107108516    10.904193284    -2.637836236
 H      -11.543761979    11.513457893    -2.124658115
 H      -11.925041985     9.864618614     0.012572166
 H      -13.074002419     9.063445332    -1.080188315
 H        2.262974907    -1.029676471    -0.043966034
 H        2.275351750     0.476195566     0.907736900
 H        2.260861897     0.546051994    -0.875709272
 H      -25.410650844     9.380582214   -13.949018322
 H      -24.242766057     8.230031063   -13.251659604
 H      -23.795949802     9.202691712   -14.680097159
 H      -24.303148070    11.478658807   -10.384238180
 C      -26.216877111    10.900502643   -11.226833162
 C      -24.578123715     9.339504355   -10.149551023
 H      -24.942471553    12.323473566   -13.774754370
 C      -23.517209087    13.446411333   -12.581363481
 C      -23.002604341    12.318061316   -14.753732609
 H       -9.003555864     8.901203067   -10.689603824
 C      -10.169593164     8.896255843   -12.522471269
 C      -10.378995660    10.583265953   -10.682124884
 H      -10.755555196     6.007477167   -11.520289918
 C       -9.156115832     5.839343802   -10.062452889
 C      -11.518149377     5.085489588    -9.705842645
 H       -2.237246052    13.508252246     1.451355817
 C       -3.904804472    14.874246493     1.714920744
 C       -3.539888262    12.766725814     3.022120976
 H       -4.197178922    14.253295039    -1.415462100
 C       -2.146573574    13.558058326    -1.583260875
 C       -4.129697059    12.456764753    -2.639310822
 H       -1.779308107    -0.908560635    -1.444312870
 C       -0.299248500    -0.172401088    -2.849263461
 C       -0.185278756    -2.366317307    -1.642323043
 H       -0.124019493    -1.938582440     1.511166191
 C       -0.189169672    -0.232248035     2.854961597
 C       -2.139793202    -1.132356587     1.573449922
 H      -26.404452202    11.840146909   -11.762319563
 H      -26.740729676    10.986235846   -10.263648246
 H      -26.719846250    10.095135465   -11.778285467
 H      -23.535637023     9.105724868    -9.889924350
 H      -25.002576218     8.454443177   -10.641661901
 H      -25.114335546     9.450272894    -9.196289185
 H      -24.142685114    13.512972719   -11.682260009
 H      -23.678525878    14.382168514   -13.136359615
 H      -22.465165330    13.457970559   -12.263260056
 H      -23.241384555    11.536904474   -15.486801610
 H      -21.923505337    12.263887027   -14.549426964
 H      -23.171282381    13.278042130   -15.262459522
 H       -9.869334566     7.890284992   -12.842206532
 H       -9.502958890     9.596194541   -13.046858602
 H      -11.179397041     9.084823151   -12.914370776
 H      -10.270012381    10.830983128    -9.617403056
 H      -11.391259458    10.882166606   -10.990407648
 H       -9.686287747    11.242064066   -11.224664089
 H       -8.449056255     6.494731543   -10.586572966
 H       -8.896816149     4.811927606   -10.356252911
 H       -8.946579533     5.911695217    -8.985778449
 H      -12.585122683     5.188245966    -9.947580170
 H      -11.424596056     5.111308867    -8.610210797
 H      -11.228322034     4.071783942   -10.015963155
 H       -3.726406297    15.451690928     0.798647695
 H       -3.420482420    15.432488717     2.529017470
 H       -4.984188025    14.904168535     1.922060831
 H       -3.129071510    11.748228971     3.068260103
 H       -4.593764582    12.713946918     3.327926172
 H       -3.021297217    13.341840725     3.802563751
 H       -1.744678712    14.220885117    -0.806339532
 H       -1.963642731    14.064824139    -2.542132794
 H       -1.532729888    12.646305067    -1.599069216
 H       -5.206124950    12.237682489    -2.626158556
 H       -3.601416206    11.498291832    -2.747725616
 H       -3.939494192    13.018344736    -3.564743302
 H       -0.654699830     0.867741176    -2.874613284
 H       -0.769597386    -0.678137127    -3.704550007
 H        0.779445869    -0.158137100    -3.053902483
 H       -0.467161233    -2.974158221    -0.772904459
 H        0.900359175    -2.459490232    -1.777961646
 H       -0.646032176    -2.848992061    -2.516546956
 H        0.897787051    -0.116789159     2.954045712
 H       -0.514440998    -0.829041238     3.719190048
 H       -0.642371104     0.761745263     2.979869228
 H       -2.518319358    -1.694547445     0.710459914
 H       -2.698922142    -0.187848182     1.632982613
 H       -2.423452499    -1.711813415     2.464162892

