187   

Si        0.000000000     0.000000000     0.000000000
 C        1.865323010     0.000000000     0.000000000
 C       -0.672369285     1.713946642     0.000000000
 C        0.138765923     2.803266946    -0.333783280
 C       -0.377114060     4.098901524    -0.331731855
 C       -1.714552293     4.335249808    -0.003155337
 C       -2.527197688     3.242368813     0.326799030
 C       -2.014611220     1.947876952     0.327742228
 C       -2.295588849     5.673831410     0.011649547
 C       -1.624179384     6.800326330    -0.282198281
 C       -2.199644115     8.140982622    -0.269078965
 C       -3.535945556     8.385746103     0.058326324
 C       -4.043398538     9.684790531     0.057800282
 C       -3.226300714    10.766615660    -0.284998371
 C       -1.886264119    10.524194805    -0.615726849
 C       -1.379959981     9.227542792    -0.602372900
Si       -3.866856787    12.490451271    -0.294764424
 C       -3.067209977    13.503068170    -1.591330041
 C       -2.607230228    13.009031506    -2.748682696
 C       -1.966407534    13.813958179    -3.790237469
 C       -1.526674408    13.174809480    -4.960433729
 C       -0.914687886    13.888533648    -5.976138275
 C       -0.754989442    15.286508410    -5.865592352
 C       -1.191237881    15.928165545    -4.695586907
 C       -1.769915991    15.190531207    -3.667894135
 N       -0.123795074    15.968700320    -6.929893360
 C       -0.687898995    15.713439774    -8.275252957
 C        0.217353652    17.381391724    -6.697409064
 C       -2.213145540    15.532398936    -8.340311484
 C       -2.985197591    16.765517251    -7.838543401
 N       -4.394619540    16.477136912    -7.519140107
 C       -5.222195527    16.050415082    -8.572133956
 C       -4.960692399    16.461523150    -9.897058136
 C       -5.775246428    16.041991419   -10.936336754
 C       -6.905567570    15.247564096   -10.698385248
 C       -7.183160677    14.869768061    -9.381647742
 C       -6.367204272    15.265687490    -8.330470347
 C       -4.557201092    15.787007977    -6.226854705
 C       -7.730619831    14.833048635   -11.833562215
 C       -8.831064917    14.075573757   -11.728185260
Si       -9.862013442    13.557512604   -13.145851472
 C       -9.826778732    14.788624890   -14.512267027
 C       -9.707396482    16.153175727   -14.216738597
 C       -9.679308239    17.096928525   -15.239926179
 C       -9.783098179    16.704182756   -16.580925795
 C       -9.911049709    15.343275177   -16.871929375
 C       -9.935058599    14.394937736   -15.849863569
 C       -9.748685448    17.729816280   -17.618310152
 C       -9.834058860    17.486750225   -18.937193018
 C       -9.799833472    18.510926217   -19.975908441
 C       -9.672036607    19.872396346   -19.688990457
 C       -9.643736031    20.817653114   -20.714284388
 C       -9.748568785    20.420863246   -22.051005478
 C       -9.877375528    19.055787674   -22.341322464
 C       -9.900288804    18.114216427   -21.316368273
Si       -9.713031602    21.654916785   -23.416351496
 C       -9.910798523    23.395292498   -22.774562404
 C       -8.054900845    21.530662749   -24.342951842
 C      -11.117586617    21.238604926   -24.631869718
 C       -9.245967791    11.867679145   -13.766629411
 C      -11.656846710    13.368776009   -12.543491154
 C       -5.745587588    12.497784115    -0.593856528
 C       -3.511252677    13.286054376     1.395703322
 C       -0.618909317    -0.917759154    -1.548179067
 C       -0.656250068    -0.905386805     1.540566848
 H        1.192413298     2.681743251    -0.600076159
 H        0.276909392     4.929518539    -0.591106941
 H       -3.571805267     3.404174841     0.585827668
 H       -2.696159110     1.135235432     0.594352479
 H       -3.353424740     5.711222722     0.287123398
 H       -0.565910640     6.760685418    -0.557474550
 H       -4.193902345     7.559548418     0.320842236
 H       -5.094470303     9.814090308     0.329616200
 H       -1.200681767    11.333459161    -0.889729591
 H       -0.335425219     9.058682285    -0.857979520
 H       -3.000400124    14.576730020    -1.360031828
 H       -2.670354106    11.941710188    -3.005737096
 H       -1.657851784    12.096862590    -5.067976834
 H       -0.546962925    13.373995058    -6.860926171
 H       -1.080780132    17.001029845    -4.575246948
 H       -2.086054820    15.707604056    -2.760893337
 H        0.868857272    17.732351469    -7.517266149
 H        0.808376989    17.465530860    -5.767266303
 H       -0.650171196    18.055946911    -6.628310100
 H       -3.783802785    16.118486659    -5.511071514
 H       -4.488429600    14.689064029    -6.303052550
 H       -5.536888804    16.059623049    -5.795001906
 H       -4.114018777    17.105153672   -10.115092477
 H       -5.538456365    16.350491250   -11.955601279
 H       -8.057595467    14.253563483    -9.167396331
 H       -6.622297843    14.953034256    -7.322863814
 H       -7.362251726    15.213520272   -12.797115384
 H       -9.173820771    13.700103485   -10.752300983
 H       -9.627372678    16.518114279   -13.186866506
 H       -9.578563859    18.151844090   -14.991407341
 H       -9.994162801    15.011329857   -17.904973416
 H      -10.037503947    13.345884723   -16.140288505
 H       -9.645140489    18.753484099   -17.246516876
 H       -9.937856783    16.462988546   -19.308485480
 H       -9.592660085    20.207825353   -18.656547309
 H       -9.541249348    21.867974693   -20.427687211
 H       -9.964082718    18.687062159   -23.367306586
 H       -9.999562217    17.058592501   -21.561829805
 H       -0.374476239    16.527845542    -8.963948950
 H       -0.194588638    14.784344190    -8.652468290
 H       -2.512593446    15.298113867    -9.380875610
 H       -2.515278596    14.642285291    -7.751318934
 H       -2.509638986    17.177400611    -6.918717632
 H       -2.948886539    17.586125457    -8.589000460
 H        2.263335169    -1.029071414     0.054986866
 H        2.260849048     0.555507779     0.869834521
 H        2.275496736     0.466275241    -0.912821126
 H       -9.929211495    24.125153925   -23.603591639
 H       -9.084281923    23.679327299   -22.099873304
 H      -10.857169441    23.505851325   -22.214538353
 H       -8.079556832    22.347201763   -25.121396886
 C       -6.845141834    21.782891033   -23.424392793
 C       -7.851253281    20.188390734   -25.068152101
 H      -10.904471777    20.194344781   -25.004117807
 C      -12.499012376    21.222573652   -23.952599992
 C      -11.170171877    22.172743728   -25.853829263
 H       -9.943583450    11.566316860   -14.600332656
 C       -7.818795672    11.941229895   -14.338676286
 C       -9.295036570    10.770976973   -12.687729501
 H      -11.629273058    12.603366651   -11.715266807
 C      -12.217512334    14.680095498   -11.964257568
 C      -12.610703029    12.856547366   -13.636645811
 H       -6.200426842    11.908945287     0.254235598
 C       -6.357372548    13.910053890    -0.572307398
 C       -6.128818144    11.809185540    -1.916105416
 H       -3.928342329    14.332895901     1.342775460
 C       -4.198336136    12.555724982     2.562537159
 C       -2.002982765    13.386417676     1.686231865
 H       -0.128472233    -1.933460639    -1.518196745
 C       -2.143902033    -1.125099506    -1.571052557
 C       -0.195988800    -0.222204909    -2.855204933
 H       -1.780783847    -0.909285610     1.441588288
 C       -0.187983997    -2.368236955     1.638763177
 C       -0.301234492    -0.175926159     2.848911833
 H       -6.870669443    22.761116101   -22.927295021
 H       -5.915624483    21.760833630   -24.011132321
 H       -6.734575813    21.015995047   -22.644187626
 H       -8.631790553    19.969558663   -25.807683411
 H       -7.790762548    19.335315458   -24.377719579
 H       -6.900701319    20.201330488   -25.621234412
 H      -12.555259557    20.529859870   -23.100601967
 H      -13.266747815    20.892913791   -24.666993548
 H      -12.813743262    22.212093677   -23.595561557
 H      -10.238812582    22.182095454   -26.434601555
 H      -11.409928301    23.211096762   -25.589101323
 H      -11.959409836    21.842336110   -26.544762841
 H       -7.714576459    12.661470034   -15.161960602
 H       -7.523668696    10.963784778   -14.745026063
 H       -7.067160505    12.199095653   -13.578256354
 H      -10.301002848    10.602332474   -12.283003356
 H       -8.622275020    10.973449655   -11.842410741
 H       -8.971346867     9.810399177   -13.113667821
 H      -11.619017691    15.082026861   -11.135151533
 H      -13.227548489    14.514358787   -11.563752653
 H      -12.313388150    15.473560949   -12.719475858
 H      -12.330065437    11.872810642   -14.033831439
 H      -12.698692061    13.548209058   -14.486792815
 H      -13.625466014    12.744217268   -13.228199565
 H       -6.192183797    14.442638105     0.372939420
 H       -7.447690281    13.848510370    -0.701519877
 H       -5.987664227    14.548222668    -1.387133830
 H       -5.781796568    10.768624496    -1.983203700
 H       -5.749193026    12.340937959    -2.800810555
 H       -7.222279794    11.775759392    -2.021487650
 H       -5.292123509    12.529565749     2.476987965
 H       -3.977150105    13.068753755     3.509881582
 H       -3.847386471    11.521062397     2.686854351
 H       -1.447063767    13.946360775     0.921960988
 H       -1.522436682    12.402938560     1.792457474
 H       -1.836181268    13.913086126     2.636638889
 H       -2.518812369    -1.698206591    -0.713672422
 H       -2.432009610    -1.692745336    -2.467913708
 H       -2.702716030    -0.179610209    -1.615822447
 H        0.890860593    -0.108369027    -2.957311896
 H       -0.647850046     0.773042209    -2.974787565
 H       -0.525023419    -0.814927115    -3.720785426
 H       -0.468716038    -2.974194549     0.767670328
 H       -0.650508034    -2.852330269     2.511259192
 H        0.897420051    -2.462297988     1.775991671
 H       -0.655658881     0.864495610     2.875543709
 H        0.777417363    -0.162850849     3.054207456
 H       -0.772516938    -0.682691222     3.703066352

