187   

Si        0.000000000     0.000000000     0.000000000
 C        1.865577511     0.000000000     0.000000000
 C       -0.680852796     1.709894730     0.000000000
 C        0.146194902     2.819260447    -0.201183088
 C       -0.384235725     4.109376240    -0.198530767
 C       -1.751697519     4.319717977    -0.003571961
 C       -2.579533415     3.206481412     0.195490322
 C       -2.052524660     1.918169458     0.199215700
 C       -2.350559974     5.650182985     0.007035948
 C       -1.671101751     6.796773144    -0.165376280
 C       -2.270018965     8.127353026    -0.154766991
 C       -3.638809462     8.335171153     0.040545964
 C       -4.169711098     9.623800967     0.043359535
 C       -3.337539914    10.735100222    -0.134802710
 C       -1.966324431    10.531035804    -0.328457615
 C       -1.441401401     9.240911093    -0.343091814
Si       -4.041835240    12.434229976    -0.130494807
 C       -2.727403813    13.674276230     0.135057059
 C       -2.490871254    14.777437699    -0.587697638
 C       -1.404521716    15.715516026    -0.292228325
 C       -1.222301546    16.847981576    -1.096478992
 C       -0.202279776    17.754881307    -0.841899741
 C        0.705138680    17.534188344     0.212559527
 C        0.523445223    16.392955388     1.021850154
 C       -0.523776696    15.518366167     0.777034501
 N        1.751362380    18.422331088     0.507566430
 C        2.030116464    19.545284516    -0.393235129
 C        2.956971803    17.845205950     1.125185724
 C        2.800759916    19.156534153    -1.666679585
 C        3.198167246    20.389966578    -2.497272707
 N        2.075800441    21.205483102    -3.012211635
 C        0.975890735    20.453510111    -3.490898541
 C        1.231794641    19.479518181    -4.478444803
 C        0.195678604    18.714195350    -4.983851527
 C       -1.124507672    18.908064621    -4.547911550
 C       -1.376026663    19.889479838    -3.587700383
 C       -0.344556732    20.664977016    -3.067409210
 C        1.758842036    22.370048876    -2.170240210
 C       -2.177629477    18.067904510    -5.119142684
 C       -3.471960223    18.154337663    -4.787480027
Si       -4.806783440    17.117986430    -5.485141766
 C       -5.804270727    16.415649029    -4.108224539
 C       -5.454351252    16.657127194    -2.774102370
 C       -6.215068668    16.121539769    -1.738379641
 C       -7.346671571    15.341390347    -2.009986234
 C       -7.694964465    15.104056103    -3.342645177
 C       -6.931459530    15.633158081    -4.381911552
 C       -8.110979259    14.802564797    -0.891643013
 C       -9.208786479    14.036279610    -1.003134028
 C       -9.958808727    13.507361033     0.131131699
 C       -9.591864647    13.757756478     1.456165688
 C      -10.334996859    13.233994733     2.513128614
 C      -11.465372720    12.448387753     2.266344179
 C      -11.834265198    12.193915382     0.938705485
 C      -11.087491220    12.714780037    -0.114632189
Si      -12.453604332    11.751984070     3.654375876
 C      -12.070070182    12.610164583     5.265419850
 C      -14.301332679    11.933758370     3.236079939
 C      -12.049677976     9.900037554     3.830898373
 C       -5.942745570    18.191136884    -6.566862291
 C       -4.065206621    15.729662635    -6.552646666
 C       -4.953322341    12.718399421    -1.771108471
 C       -5.278709366    12.609557405     1.312051953
 C       -0.602505090    -0.928194317    -1.549185940
 C       -0.661306828    -0.898542673     1.542201160
 H        1.222980945     2.718139844    -0.361962000
 H        0.281859253     4.956268671    -0.353063693
 H       -3.647469086     3.348105407     0.350200536
 H       -2.746701399     1.089285287     0.363898452
 H       -3.432062059     5.663657953     0.170194402
 H       -0.589535370     6.783429154    -0.329218227
 H       -4.303819993     7.486690186     0.188565572
 H       -5.249085593     9.725335006     0.191880675
 H       -1.271998953    11.364383979    -0.476769351
 H       -0.373876421     9.100046929    -0.499985331
 H       -2.103412836    13.433453526     1.013404328
 H       -3.088621426    15.058692498    -1.464627065
 H       -1.889642106    17.027535770    -1.942427714
 H       -0.101022245    18.623259496    -1.489234835
 H        1.189553263    16.198575462     1.855962479
 H       -0.647821669    14.653052466     1.430695445
 H        3.781136164    18.576001178     1.134804062
 H        3.307880476    16.934307247     0.612159370
 H        2.735452288    17.595129766     2.179560131
 H        2.673323101    22.974827449    -2.039202808
 H        1.358805535    22.122183125    -1.175209593
 H        1.028472389    23.011300308    -2.696473665
 H        2.245984892    19.335142627    -4.842316689
 H        0.410511372    17.954324985    -5.735711326
 H       -2.393994728    20.059068588    -3.233196280
 H       -0.575990762    21.416765940    -2.319152593
 H       -1.798151899    17.344644382    -5.853636298
 H       -3.824356713    18.901802493    -4.057928236
 H       -4.578685182    17.255185156    -2.500956522
 H       -5.924420149    16.318015836    -0.706816538
 H       -8.568828990    14.500687156    -3.579369171
 H       -7.253725781    15.415194935    -5.403806300
 H       -7.727713993    15.077143891     0.097448700
 H       -9.603635973    13.762249724    -1.984812053
 H       -8.715626039    14.366190509     1.675610883
 H       -9.999686149    13.465095616     3.528090928
 H      -12.707783464    11.586463433     0.686366538
 H      -11.388601051    12.504717492    -1.139022017
 H        1.063244103    20.033304504    -0.660405654
 H        2.605401425    20.304888673     0.186138356
 H        3.710367277    18.585469271    -1.404096450
 H        2.187295344    18.460534788    -2.274904241
 H        3.880267195    21.041687287    -1.909714965
 H        3.784326936    20.057038401    -3.387766131
 H        2.263086575    -1.029845471     0.039829096
 H        2.262665858     0.542648731     0.877008102
 H        2.273831048     0.479422781    -0.906979597
 H      -12.705016643    12.223936914     6.082820537
 H      -12.253756477    13.697287518     5.188256452
 H      -11.017507844    12.466631457     5.566313191
 H      -14.462593393    11.348036467     2.284626791
 C      -15.234297079    11.349567538     4.311712427
 C      -14.702748521    13.394661787     2.963264331
 H      -12.628510519     9.544356964     4.731522617
 C      -12.488111854     9.058332190     2.619137554
 C      -10.553673169     9.646128343     4.092450420
 H       -6.737116821    17.494354558    -6.963543532
 C       -6.645392246    19.301523541    -5.765468789
 C       -5.216133510    18.820964848    -7.767743394
 H       -3.407333649    16.251446678    -7.307812135
 C       -3.188657624    14.762337016    -5.737521773
 C       -5.109398128    14.908566539    -7.329451853
 H       -5.217542150    13.817589705    -1.796940677
 C       -4.059682759    12.415234939    -2.987154830
 C       -6.260577391    11.918824308    -1.906837225
 H       -6.235387862    12.122861451     0.964834636
 C       -4.821138744    11.891747894     2.594515570
 C       -5.580835654    14.078845960     1.656915779
 H       -0.087055340    -1.931647967    -1.520564762
 C       -2.121422148    -1.175259016    -1.575789593
 C       -0.196442453    -0.219646685    -2.854645353
 H       -1.786076085    -0.890254283     1.445123074
 C       -0.207614683    -2.365970664     1.640452817
 C       -0.296748737    -0.171886403     2.849482039
 H      -15.053248001    10.285874025     4.513486001
 H      -16.280734119    11.425648215     3.981953091
 H      -15.174710157    11.886386862     5.267814221
 H      -14.114812840    13.863835043     2.161434218
 H      -14.620892769    14.035482306     3.851281992
 H      -15.753135396    13.443582365     2.642519385
 H      -13.565707400     9.111439450     2.418705723
 H      -12.262125607     7.996890963     2.797983780
 H      -11.958915044     9.331588623     1.695317822
 H      -10.175934717    10.149272478     4.991906332
 H       -9.915478587     9.947252555     3.249019400
 H      -10.375378449     8.571857259     4.244584890
 H       -7.227685101    18.921906063    -4.914031391
 H       -7.359167863    19.835606632    -6.409057934
 H       -5.949320975    20.059864900    -5.382033136
 H       -4.760082248    18.081325774    -8.438337593
 H       -4.430180589    19.529373427    -7.469284244
 H       -5.927938177    19.392715614    -8.380574763
 H       -2.379915483    15.256687136    -5.181446803
 H       -2.704970608    14.035969600    -6.405296313
 H       -3.770798346    14.175048990    -5.011522223
 H       -5.755283857    15.516750379    -7.974851840
 H       -5.754923199    14.308355351    -6.673534188
 H       -4.602812791    14.192649611    -7.993627344
 H       -3.140177475    13.016650331    -3.010949188
 H       -4.606158643    12.638910750    -3.915301050
 H       -3.766831448    11.357850088    -3.051988800
 H       -7.006220825    12.172452426    -1.140339841
 H       -6.107651924    10.832235689    -1.887613700
 H       -6.737158481    12.147138102    -2.871826698
 H       -4.634954393    10.818428597     2.451566991
 H       -5.600511719    11.967879386     3.365997639
 H       -3.911242778    12.326401066     3.028832150
 H       -5.908532025    14.670435821     0.792108196
 H       -4.715770871    14.596527058     2.096121479
 H       -6.386156285    14.132114527     2.402410795
 H       -2.487727733    -1.738162829    -0.708116210
 H       -2.388676451    -1.769991132    -2.461492252
 H       -2.703106951    -0.245426995    -1.646162256
 H        0.887143158    -0.077075409    -2.955555244
 H       -0.673283821     0.764249898    -2.972216346
 H       -0.509425900    -0.818688802    -3.721678767
 H       -0.493716511    -2.968933853     0.769046680
 H       -0.675305133    -2.845547159     2.512618829
 H        0.876745570    -2.470491623     1.777989279
 H       -0.641824798     0.871762187     2.876028705
 H        0.782252049    -0.168781999     3.052713190
 H       -0.771496524    -0.673671084     3.704612925

