187   

Si        0.000000000     0.000000000     0.000000000
 C        1.865330225     0.000000000     0.000000000
 C       -0.666860556     1.716198784     0.000000000
 C        0.090942994     2.772502557    -0.516880313
 C       -0.412447774     4.072918352    -0.517725228
 C       -1.685058534     4.347079863    -0.009386512
 C       -2.445461487     3.286968339     0.501582162
 C       -1.945637921     1.987342676     0.503744359
 C       -2.251698749     5.691657016     0.009860525
 C       -1.627790045     6.790225022    -0.448226164
 C       -2.191318307     8.135945271    -0.430529396
 C       -3.463148732     8.414366527     0.076747530
 C       -3.962378649     9.716982095     0.073716087
 C       -3.204299462    10.766458597    -0.452673129
 C       -1.929068136    10.489856422    -0.965532026
 C       -1.429087233     9.191332253    -0.949444450
Si       -3.826766773    12.497331133    -0.475166988
 C       -3.277775359    13.369324034    -1.990578698
 C       -3.060731558    12.740159229    -3.153048214
 C       -2.622269829    13.394803697    -4.387530766
 C       -2.436975403    12.599830493    -5.529101141
 C       -2.023333000    13.160797305    -6.726457476
 C       -1.773650102    14.542627035    -6.804444198
 C       -1.974326856    15.345347491    -5.676204882
 C       -2.418473280    14.773272935    -4.487151836
 N       -1.350493125    15.036846190    -8.078570352
 C        0.055709938    14.677823971    -8.377254196
 C       -1.640446951    16.461053471    -8.319602323
 C        1.106553295    15.445420313    -7.550628867
 C        2.267435917    14.559102761    -7.059656170
 N        2.034397644    13.849456605    -5.783109280
 C        1.526462222    14.634755630    -4.726467241
 C        2.023591345    15.942697489    -4.540399444
 C        1.542818532    16.735623700    -3.511103502
 C        0.569012731    16.258807528    -2.622816115
 C        0.108221375    14.949754476    -2.785301054
 C        0.596771959    14.134719020    -3.798061118
 C        1.427691872    12.519281797    -5.958836555
 C        0.094710433    17.137040262    -1.552236657
 C       -0.830523696    16.782185884    -0.651854732
Si       -1.469089444    17.821565993     0.707341335
 C       -1.379150396    16.842001802     2.261497294
 C       -0.202875977    16.139951375     2.557761882
 C       -0.105475501    15.389910514     3.726777067
 C       -1.179113695    15.319777316     4.624679821
 C       -2.349045122    16.023731383     4.327373175
 C       -2.447503649    16.781327139     3.160703319
 C       -1.029960745    14.521110641     5.836389633
 C       -1.978257226    14.377686809     6.777653935
 C       -1.831067871    13.579460556     7.990091814
 C       -0.663120377    12.874213445     8.291011834
 C       -0.565355348    12.123068912     9.462174170
 C       -1.638766054    12.056148739    10.355914247
 C       -2.811975151    12.761771576    10.055728083
 C       -2.904566326    13.514756484     8.888609206
Si       -1.525338381    11.069086127    11.905887000
 C       -0.048197493     9.930316864    11.886841201
 C       -1.373622814    12.244311241    13.395541697
 C       -3.129857145    10.061506823    12.089697943
 C       -0.460879975    19.419389234     0.914442353
 C       -3.263839417    18.300155670     0.289028272
 C       -5.717733974    12.572233143    -0.346506712
 C       -3.049533484    13.398236677     1.011405603
 C       -0.630584701    -0.905514090    -1.550559445
 C       -0.649857698    -0.919915115     1.534964412
 H        1.093077405     2.620758791    -0.927380365
 H        0.199322896     4.877668935    -0.921286707
 H       -3.439510564     3.478192870     0.901515589
 H       -2.585878175     1.201367431     0.913561222
 H       -3.256447429     5.759200751     0.436997806
 H       -0.622423107     6.721671647    -0.874146623
 H       -4.075681139     7.612812169     0.485061149
 H       -4.959925277     9.874154812     0.492684230
 H       -1.290432608    11.274261125    -1.387545344
 H       -0.434982787     8.995473374    -1.346698666
 H       -3.157404703    14.458534412    -1.892559280
 H       -3.188286767    11.653577838    -3.269825041
 H       -2.624841767    11.526983033    -5.477535403
 H       -1.906689469    12.545906966    -7.616774855
 H       -1.784931908    16.414409661    -5.715985645
 H       -2.584020937    15.416852679    -3.621277549
 H       -1.463526814    16.676391978    -9.387692810
 H       -1.041142905    17.163141003    -7.720342852
 H       -2.709786829    16.650789086    -8.119087300
 H        1.919142703    11.990689094    -6.791414982
 H        0.341149334    12.549127026    -6.152800929
 H        1.607956425    11.919066367    -5.047857868
 H        2.789958971    16.332003893    -5.204080631
 H        1.935127118    17.745536114    -3.391682985
 H       -0.639789513    14.541691347    -2.099964866
 H        0.210915178    13.121815429    -3.883688957
 H        0.573735790    18.123994507    -1.557345482
 H       -1.294742628    15.780080251    -0.678037615
 H        0.663725096    16.151711195     1.887594235
 H        0.815581991    14.851213575     3.942404371
 H       -3.196382741    15.988327430     5.009351168
 H       -3.385295273    17.315631909     2.986364999
 H       -0.061663115    14.022539225     5.940159650
 H       -2.946660577    14.875679419     6.673367673
 H        0.185024110    12.905637501     7.609240741
 H        0.373757165    11.592803577     9.643321195
 H       -3.683425090    12.745398754    10.716298856
 H       -3.823541976    14.056479592     8.673248352
 H        0.165595984    13.581036690    -8.227084730
 H        0.215193197    14.856747300    -9.463730359
 H        1.513045788    16.281528840    -8.147798088
 H        0.617197895    15.927944304    -6.678211723
 H        2.543338250    13.815625910    -7.838500431
 H        3.177731376    15.189559854    -6.914242626
 H        2.263680917    -1.028164148     0.065926502
 H        2.258929060     0.565347023     0.864578514
 H        2.276919185     0.457959950    -0.916150356
 H       -0.013385409     9.307963982    12.798857101
 H        0.900959106    10.491553191    11.830941890
 H       -0.087229690     9.245813894    11.019884113
 H       -1.245917234    11.578256049    14.297323483
 C       -0.139753469    13.160512475    13.300089469
 C       -2.620142674    13.118364906    13.621984554
 H       -3.965825099    10.818257743    12.143147415
 C       -3.395939551     9.151525795    10.876929317
 C       -3.179265399     9.213759462    13.373230828
 H       -0.476884338    19.928398010    -0.092668320
 C       -1.069489513    20.385437892     1.946804583
 C        1.008053499    19.155694695     1.292343474
 H       -3.638367404    18.896231255     1.170368776
 C       -3.364789487    19.189372978    -0.964106203
 C       -4.190256242    17.085269350     0.103580406
 H       -5.986341506    12.045393805     0.614969328
 C       -6.264267479    14.009432760    -0.266258728
 C       -6.415246046    11.837097154    -1.505081439
 H       -3.299587290    14.491111401     0.881613788
 C       -3.604668254    12.945991550     2.371909938
 C       -1.517798255    13.254340750     1.028655447
 H       -0.163407224    -1.931884719    -1.519708291
 C       -2.160212087    -1.076527253    -1.573750180
 C       -0.190141854    -0.219840316    -2.856894135
 H       -1.775061207    -0.918994399     1.444293998
 C       -0.187402854    -2.386043096     1.612691422
 C       -0.281426810    -0.208510686     2.849539624
 H        0.806955575    12.610705614    13.221441112
 H       -0.060183465    13.780978476    14.204268841
 H       -0.190638681    13.858391545    12.451901221
 H       -3.536917048    12.537295309    13.782980232
 H       -2.804916195    13.819681999    12.796107079
 H       -2.486923996    13.735555512    14.522563732
 H       -3.428657944     9.697659853     9.923184865
 H       -4.373153481     8.659141489    10.982043551
 H       -2.654841294     8.347992947    10.772064074
 H       -3.063849115     9.805698555    14.290367759
 H       -2.422027409     8.418717428    13.390643191
 H       -4.153986635     8.710736454    13.453060939
 H       -2.088984048    20.705908455     1.697365013
 H       -0.465917666    21.302958676     2.004969302
 H       -1.089361318    19.968584304     2.963830795
 H        1.532280943    18.496551789     0.587087707
 H        1.116879166    18.720691776     2.296376565
 H        1.568957225    20.100961538     1.305911056
 H       -2.808936521    20.131420962    -0.876784992
 H       -4.412314435    19.470509364    -1.143193474
 H       -3.020740600    18.682842131    -1.877639223
 H       -4.208918040    16.412583320     0.972261314
 H       -3.932280475    16.485235322    -0.781001647
 H       -5.226464157    17.420974440    -0.045147489
 H       -5.866997659    14.578808626     0.584649283
 H       -7.355885748    13.989377585    -0.138498578
 H       -6.073717597    14.590174396    -1.179506671
 H       -6.121740941    10.782140253    -1.594341254
 H       -6.237443744    12.311797761    -2.480962737
 H       -7.503905325    11.840985636    -1.354861837
 H       -4.686642975    13.089203149     2.474817572
 H       -3.138385072    13.537396623     3.177300359
 H       -3.380307374    11.895286047     2.600734460
 H       -1.028744518    13.610133865     0.112457864
 H       -1.185712351    12.222200488     1.207476578
 H       -1.098393041    13.853842795     1.852890823
 H       -2.546846766    -1.651973277    -0.723092629
 H       -2.463535427    -1.624815294    -2.477459192
 H       -2.697095610    -0.117605885    -1.603235436
 H        0.899185308    -0.132502016    -2.957872144
 H       -0.618454758     0.785809020    -2.976384076
 H       -0.532647695    -0.804251402    -3.722891544
 H       -0.477145766    -2.980483011     0.736631009
 H       -0.646004458    -2.878285079     2.482656571
 H        0.898472066    -2.486605640     1.741012162
 H       -0.624911686     0.835094637     2.890333428
 H        0.798565999    -0.208073644     3.048618598
 H       -0.752398432    -0.720672550     3.700576314

