187   

Si        0.000000000     0.000000000     0.000000000
 C        1.865423023     0.000000000     0.000000000
 C       -0.681588692     1.709413705     0.000000000
 C        0.116238273     2.805266306     0.343815205
 C       -0.411822390     4.096317908     0.340116335
 C       -1.748001374     4.320851702    -0.001263378
 C       -2.547266731     3.220997768    -0.341220717
 C       -2.023059135     1.931481054    -0.339443777
 C       -2.344529555     5.652258807    -0.019306415
 C       -1.693307480     6.788302807     0.282999482
 C       -2.292884309     8.118541423     0.263994113
 C       -3.631015935     8.335064414    -0.078794551
 C       -4.164932330     9.622239233    -0.084519983
 C       -3.366642925    10.723673025     0.245631983
 C       -2.026763344    10.510882902     0.589708140
 C       -1.498976527     9.221752519     0.602421319
Si       -4.080880303    12.420682081     0.235327993
 C       -2.744132214    13.665228195     0.228025256
 C       -2.606488944    14.728093579     1.032628233
 C       -1.485778626    15.668142503     0.937449845
 C       -1.408056854    16.758310029     1.813971327
 C       -0.357763173    17.664086329     1.746134660
 C        0.637726063    17.532681026     0.758210354
 C        0.558401312    16.437132223    -0.127833506
 C       -0.475674731    15.520795197    -0.019989830
 N        1.717401338    18.419021049     0.646699332
 C        1.820560366    19.582381703     1.530191940
 C        2.271300174    18.635618513    -0.698604699
 C        1.044415117    20.823469343     1.049268361
 C        1.231332781    21.990034334     2.042129900
 N       -0.029822039    22.520131449     2.607877671
 C       -0.876602461    21.514027537     3.142775332
 C       -0.337017203    20.636929481     4.105606520
 C       -1.123574171    19.638666770     4.657172445
 C       -2.479671823    19.520974947     4.319373138
 C       -3.016491617    20.410643074     3.386082781
 C       -2.231198962    21.395509310     2.798817050
 C       -0.671702174    23.499818463     1.713770281
 C       -3.272835310    18.450625376     4.926772941
 C       -4.571977738    18.258779231     4.666736067
Si       -5.641240190    16.956798476     5.372276434
 C       -6.514165520    16.139487644     3.972508581
 C       -6.150671312    16.433809907     2.652458265
 C       -6.805288864    15.820557371     1.588653146
 C       -7.845021273    14.909443712     1.815702588
 C       -8.207625455    14.619726448     3.134172504
 C       -7.547615687    15.225523564     4.202873936
 C       -8.496756817    14.295879728     0.664845919
 C       -9.497627142    13.401903662     0.728237148
 C      -10.134440133    12.801261388    -0.439003395
 C       -9.749901387    13.110898893    -1.746411398
 C      -10.383524876    12.515154094    -2.836161761
 C      -11.420039027    11.596906351    -2.640637469
 C      -11.806574367    11.283367064    -1.330657625
 C      -11.168728320    11.876612522    -0.244509326
Si      -12.264618277    10.803454669    -4.070798201
 C      -11.892787701    11.692992825    -5.667571033
 C      -11.670095502     9.001165586    -4.219492048
 C      -14.138757624    10.800197973    -3.740084469
 C       -4.600048123    15.674888568     6.314423578
 C       -6.912718975    17.725995163     6.552732323
 C       -5.132465504    12.650802014    -1.335933484
 C       -5.183472504    12.590083105     1.772299250
 C       -0.652078320    -0.907898632    -1.541336090
 C       -0.617693434    -0.921416325     1.546901774
 H        1.168472687     2.692628196     0.619078034
 H        0.230974487     4.932801093     0.608362318
 H       -3.590795740     3.373635445    -0.609913272
 H       -2.694814051     1.113296922    -0.613523608
 H       -3.400044640     5.675749476    -0.305452540
 H       -0.637852750     6.765671080     0.569650370
 H       -4.269282828     7.494472775    -0.343697243
 H       -5.219055422     9.730787913    -0.357358661
 H       -1.360157156    11.335854092     0.861044696
 H       -0.456323427     9.073922317     0.876644940
 H       -2.002712959    13.464879693    -0.565791157
 H       -3.320585305    14.973279342     1.829282496
 H       -2.183482959    16.904655353     2.570009275
 H       -0.336378462    18.496792234     2.445878206
 H        1.316704799    16.291058506    -0.889938628
 H       -0.499433377    14.674736989    -0.709395004
 H        3.007739185    19.455161786    -0.691405275
 H        1.495406435    18.871264779    -1.446018355
 H        2.808149286    17.724400771    -1.021959376
 H        0.045508348    24.311427611     1.500303096
 H       -1.529302268    23.964063454     2.232152329
 H       -1.016080681    23.077669711     0.756819957
 H        0.698698738    20.747275499     4.416860745
 H       -0.684098159    18.949652893     5.379379930
 H       -4.066711703    20.334937103     3.099474751
 H       -2.679510381    22.055046427     2.062199660
 H       -2.698611989    17.818299665     5.615557371
 H       -5.115679385    18.932965806     3.981792391
 H       -5.343523740    17.134017047     2.410377320
 H       -6.506253095    16.062603066     0.569216185
 H       -9.011745429    13.915414109     3.336913741
 H       -7.873294102    14.960480301     5.212187420
 H       -8.109746981    14.622725314    -0.306572710
 H       -9.894389319    13.072023598     1.691709138
 H       -8.945396254    13.822474892    -1.926358592
 H      -10.039418181    12.797046787    -3.835174027
 H      -12.610148621    10.572806874    -1.117879174
 H      -11.481599267    11.619070789     0.765474148
 H        1.483888915    19.292044871     2.553635610
 H        2.905584210    19.827763830     1.625653051
 H        1.376435408    21.119031981     0.039754396
 H       -0.027210444    20.566335495     0.934656014
 H        1.870714144    21.684046732     2.902261926
 H        1.779097622    22.825465589     1.554991891
 H        2.262906599    -1.029677837    -0.042736675
 H        2.275730345     0.477631999     0.906840310
 H        2.260484944     0.545303348    -0.876434422
 H      -12.437575854    11.236813827    -6.513422349
 H      -10.816397171    11.664246511    -5.911571381
 H      -12.197800693    12.753708424    -5.610236004
 H      -12.165619951     8.590893100    -5.146353209
 C      -10.145253162     8.898124963    -4.407335377
 C      -12.080820435     8.117207340    -3.028351648
 H      -14.284833276    10.206685496    -2.790923061
 C      -14.697251328    12.214742519    -3.501137985
 C      -14.956763993    10.118875442    -4.851428075
 H       -4.062504101    16.250870024     7.122461014
 C       -5.441817977    14.579086843     6.991879698
 C       -3.543856146    15.000472458     5.420428168
 H       -7.526033720    16.865517599     6.950004482
 C       -6.268130361    18.444710716     7.750860510
 C       -7.869093294    18.697975655     5.838727886
 H       -6.080373287    12.062561642    -1.163710785
 C       -5.517643779    14.118218423    -1.591409403
 C       -4.452575814    12.092815457    -2.599370613
 H       -5.499660928    13.674349291     1.816691299
 C       -6.456252778    11.727534706     1.722267689
 C       -4.420521088    12.259328176     3.068093215
 H       -1.776653198    -0.916026556    -1.443444382
 C       -0.298966939    -0.176777851    -2.849294731
 C       -0.178348537    -2.368937408    -1.639962875
 H       -0.131640383    -1.938989893     1.511313381
 C       -0.188694106    -0.232642763     2.855396811
 C       -2.143535398    -1.122641223     1.572997226
 H       -9.777208629     9.434525693    -5.291475003
 H       -9.852768860     7.846923439    -4.542950130
 H       -9.581468471     9.264127090    -3.536994815
 H      -13.166598442     8.065569181    -2.877847999
 H      -11.623211875     8.437143587    -2.081584649
 H      -11.745638573     7.083035993    -3.195279433
 H      -14.195738406    12.746394877    -2.679794984
 H      -15.760368305    12.159220129    -3.226729742
 H      -14.641262784    12.854426384    -4.391915905
 H      -14.663570944     9.076218411    -5.030032241
 H      -14.902768848    10.650493406    -5.810729829
 H      -16.020633045    10.095238317    -4.573495159
 H       -6.188634485    14.969595454     7.694251113
 H       -4.790271295    13.915267681     7.579275597
 H       -5.961813334    13.933104259     6.270366933
 H       -2.844690239    15.705814830     4.950826022
 H       -3.991367868    14.399751675     4.614199595
 H       -2.929832134    14.309804910     6.015290749
 H       -5.637062056    17.788905007     8.364447042
 H       -7.048592167    18.833619157     8.420808053
 H       -5.659357170    19.310709932     7.454147651
 H       -8.404254428    18.241019663     4.994416967
 H       -7.364135834    19.598994271     5.464599169
 H       -8.642897854    19.046506900     6.537814990
 H       -6.040568595    14.580827478    -0.744200611
 H       -6.193644377    14.186016346    -2.454826789
 H       -4.649210520    14.750325005    -1.826174005
 H       -4.187984225    11.029192389    -2.518750539
 H       -3.539619713    12.638493168    -2.871926003
 H       -5.131649563    12.175283790    -3.459652992
 H       -7.103968626    11.953004158     0.863772308
 H       -7.069353146    11.919275068     2.615565441
 H       -6.247155690    10.649939915     1.715708722
 H       -3.502462978    12.848855060     3.198873955
 H       -4.141940703    11.198250082     3.139434099
 H       -5.057313314    12.469631028     3.939732574
 H       -0.656231763     0.862793489    -2.874999308
 H       -0.768640833    -0.683998790    -3.703908414
 H        0.779642008    -0.160430328    -3.054270723
 H       -0.458746814    -2.976583422    -0.769937583
 H        0.907631724    -2.458914179    -1.774887443
 H       -0.637185148    -2.853906066    -2.513820618
 H        0.898811485    -0.122775874     2.954735572
 H       -0.517379772    -0.827523820     3.719585953
 H       -0.636850309     0.763794489     2.979875675
 H       -2.523056375    -1.689199297     0.713361967
 H       -2.698059200    -0.174837827     1.624216349
 H       -2.431749718    -1.693923789     2.467415019

