187   

Si        0.000000000     0.000000000     0.000000000
 C        1.865033556     0.000000000     0.000000000
 C       -0.682527820     1.709526885     0.000000000
 C        0.090163805     2.793840205     0.428172482
 C       -0.436164154     4.085623650     0.424413547
 C       -1.745891407     4.322052115    -0.001114529
 C       -2.520608424     3.233728192    -0.424459707
 C       -1.998244911     1.943446764    -0.421887336
 C       -2.340322539     5.654274535    -0.023066890
 C       -1.713332717     6.781385286     0.353966995
 C       -2.314038390     8.111098076     0.329467051
 C       -3.625436476     8.335872796    -0.098274589
 C       -4.161952995     9.622908735    -0.106264236
 C       -3.401703745    10.712463823     0.330700996
 C       -2.087480372    10.490060867     0.762862801
 C       -1.550317674     9.205548038     0.756306811
Si       -4.087556716    12.419242668     0.329473362
 C       -3.427284226    13.428882210     1.702270804
 C       -3.043738607    12.935467285     2.887665750
 C       -2.515670397    13.749075173     3.983391802
 C       -2.146458342    13.118054082     5.180545813
 C       -1.641665201    13.842825993     6.247007990
 C       -1.534448863    15.249547490     6.167800517
 C       -1.906184801    15.884032655     4.966706471
 C       -2.366050931    15.135365663     3.891455648
 N       -1.021090095    15.964712160     7.257704741
 C       -1.368622768    15.501933052     8.611343628
 C       -0.903843536    17.421689494     7.118471154
 C       -2.861307354    15.217573667     8.862674222
 C       -3.738204302    16.471777620     9.022240589
 N       -3.478617005    17.309201228    10.210946282
 C       -2.477213732    18.297730787    10.039847248
 C       -2.710929102    19.287362190     9.062889998
 C       -1.774307353    20.283054044     8.843603935
 C       -0.602456012    20.353133363     9.613513184
 C       -0.391199704    19.389080769    10.601234574
 C       -1.317780185    18.375742603    10.825088711
 C       -3.433386540    16.551587252    11.470302710
 C        0.352175268    21.428034498     9.336660242
 C        1.503912913    21.604327652     9.997944356
Si        2.681223767    22.956618279     9.632835916
 C        2.607497560    23.432297914     7.857395269
 C        2.408491352    22.436489057     6.891079016
 C        2.348336678    22.766349894     5.540229243
 C        2.496414937    24.094857933     5.119333648
 C        2.702346094    25.084150540     6.084631533
 C        2.759562116    24.757545753     7.439527804
 C        2.425470442    24.389118938     3.692039157
 C        2.546959200    25.614746723     3.154846114
 C        2.475462889    25.905402954     1.726609232
 C        2.269384799    24.912809877     0.765095163
 C        2.207634450    25.234740770    -0.590661501
 C        2.356507857    26.558902081    -1.014889352
 C        2.563458801    27.556406329    -0.052345368
 C        2.619407076    27.232602199     1.300378397
Si        2.277320228    26.998684499    -2.800862258
 C        2.424747788    25.488627747    -3.885826802
 C        0.617771746    27.856704040    -3.165393320
 C        3.686116281    28.221192850    -3.180930819
 C        2.273689280    24.446109824    10.742481346
 C        4.438518403    22.353128180    10.037698532
 C       -3.615592031    13.260401050    -1.310812001
 C       -5.985024594    12.367700737     0.463257268
 C       -0.647541185    -0.916763347    -1.538230227
 C       -0.622072605    -0.915117551     1.548766764
 H        1.121193383     2.671041772     0.771167886
 H        0.187024012     4.913116109     0.758682642
 H       -3.543499968     3.395823195    -0.759050606
 H       -2.650883049     1.134492558    -0.761777732
 H       -3.373799955     5.686581224    -0.380734857
 H       -0.680044075     6.751439759     0.711526652
 H       -4.240682783     7.503334684    -0.433911657
 H       -5.190255173     9.736215212    -0.460010849
 H       -1.447163683    11.306589317     1.114305753
 H       -0.526080347     9.052573749     1.091328757
 H       -3.378714552    14.507897407     1.491344738
 H       -3.090148627    11.863637204     3.127595900
 H       -2.243862367    12.035244853     5.270524873
 H       -1.322106100    13.323591688     7.145515346
 H       -1.836663663    16.961863270     4.863942558
 H       -2.631282537    15.649201741     2.966332739
 H       -0.430990698    17.853222343     8.020393309
 H       -1.869385142    17.931955736     6.967504842
 H       -0.236876610    17.653205092     6.267674817
 H       -4.348085081    15.938230183    11.550257170
 H       -3.443155563    17.260801416    12.317697644
 H       -2.559373022    15.890235104    11.575256934
 H       -3.636793835    19.267963513     8.490990079
 H       -1.961179462    21.034999889     8.075431074
 H        0.510464312    19.425569507    11.213825305
 H       -1.124806075    17.642513155    11.602069945
 H        0.034188260    22.085182039     8.513860207
 H        1.799100475    20.941427428    10.824569593
 H        2.289661941    21.381310227     7.160879955
 H        2.187394920    21.980660194     4.804330705
 H        2.821239275    26.123503627     5.784363909
 H        2.923964249    25.574365372     8.147520643
 H        2.261025524    23.516164796     3.053341272
 H        2.712162716    26.488345502     3.792156703
 H        2.154678179    23.873731576     1.068424890
 H        2.044262030    24.414866840    -1.295610403
 H        2.686920402    28.608285978    -0.325220461
 H        2.779381791    28.021359596     2.033079708
 H       -0.782354158    14.569224316     8.797762152
 H       -0.993996081    16.245082953     9.352069600
 H       -3.271668841    14.613037779     8.025724693
 H       -2.957092452    14.572707562     9.756298529
 H       -3.655920518    17.099151286     8.106486779
 H       -4.808948006    16.160245228     9.086655791
 H        2.262630347    -1.029540476    -0.047092662
 H        2.276440799     0.474141591     0.908138725
 H        2.259616475     0.549036373    -0.874484777
 H        2.424974971    25.765367185    -4.955335852
 H        1.589193862    24.785180317    -3.724948883
 H        3.366270228    24.946170141    -3.683592601
 H        0.611344445    28.048922985    -4.277237316
 C       -0.592732080    26.967096527    -2.827771212
 C        0.451954677    29.207930064    -2.447209032
 H        3.499209238    29.121983231    -2.526681720
 C        5.070954589    27.655189586    -2.818162323
 C        3.706860995    28.698210105    -4.644026708
 H        3.037594027    25.238814593    10.494621256
 C        0.874841927    25.021690351    10.457361715
 C        2.386828065    24.132087813    12.245028098
 H        4.431715747    22.084590832    11.133479483
 C        4.821931963    21.094006765     9.239634005
 C        5.512579279    23.432128634     9.815934143
 H       -4.065626013    14.294055819    -1.272327222
 C       -2.091877790    13.407864783    -1.471812279
 C       -4.181503043    12.537678941    -2.545504703
 H       -6.346979354    11.786252920    -0.433126208
 C       -6.461432923    11.638688901     1.732481590
 C       -6.633994241    13.762646161     0.416611990
 H       -1.771928099    -0.933039219    -1.439759193
 C       -0.299927646    -0.187845638    -2.848831140
 C       -0.163659392    -2.374918547    -1.631640484
 H       -0.142701567    -1.935843247     1.515584897
 C       -0.189097956    -0.226413607     2.855984589
 C       -2.149321955    -1.105400031     1.573601050
 H       -0.595401444    26.010792782    -3.366402461
 H       -1.525450597    27.478469293    -3.105998776
 H       -0.672903041    26.744560040    -1.753982557
 H        1.232487033    29.935912610    -2.702110381
 H        0.426238245    29.109088456    -1.352814539
 H       -0.503607083    29.670598462    -2.734457232
 H        5.150421981    27.342932136    -1.766975406
 H        5.843536028    28.422522702    -2.969574754
 H        5.360899079    26.798007421    -3.440217996
 H        2.771258689    29.178567273    -4.958290748
 H        3.923097673    27.889827122    -5.355024257
 H        4.498849006    29.448637406    -4.782672579
 H        0.730439116    25.324628704     9.411074151
 H        0.705732041    25.922083910    11.064658864
 H        0.065372265    24.321986318    10.711839907
 H        3.386061370    23.792325434    12.545777837
 H        1.660484381    23.378681284    12.580409176
 H        2.181812608    25.037923659    12.834068447
 H        4.129350019    20.254421250     9.387807763
 H        5.812431311    20.735536308     9.554388609
 H        4.893305260    21.279384094     8.158021055
 H        5.358467747    24.332646884    10.424086417
 H        5.592457460    23.747496384     8.765565256
 H        6.502165705    23.040540317    10.093139820
 H       -1.618423117    13.965885579    -0.652293627
 H       -1.861458392    13.959353629    -2.394221532
 H       -1.576053870    12.440372445    -1.555867216
 H       -5.277264264    12.478337472    -2.551511486
 H       -3.790357506    11.516546700    -2.660681929
 H       -3.898578956    13.077985579    -3.460506054
 H       -6.086494878    10.608847390     1.812014323
 H       -7.558093285    11.568785493     1.739210205
 H       -6.179751264    12.163838398     2.656832212
 H       -6.404970168    14.319502743    -0.500853276
 H       -6.352306243    14.393285542     1.271578901
 H       -7.728901765    13.668757401     0.452571416
 H       -0.663714727     0.849277822    -2.878450654
 H       -0.766326352    -0.701403261    -3.701535105
 H        0.778563466    -0.165184777    -3.054307889
 H       -0.438850047    -2.981250431    -0.759045334
 H        0.922789112    -2.457878377    -1.767581672
 H       -0.620132759    -2.866406865    -2.503131019
 H        0.899091942    -0.123910482     2.955591113
 H       -0.522132935    -0.817494479     3.721167807
 H       -0.630907717     0.773034065     2.978394669
 H       -2.530755418    -1.678244986     0.718924345
 H       -2.697792923    -0.153503919     1.613273431
 H       -2.443520834    -1.665538351     2.473122458

