187   

Si        0.000000000     0.000000000     0.000000000
 C        1.865039372     0.000000000     0.000000000
 C       -0.682964143     1.709298788     0.000000000
 C        0.098500049     2.800471968     0.393015717
 C       -0.431268368     4.090917368     0.388444437
 C       -1.753044688     4.318908727    -0.002824031
 C       -2.536436004     3.223797092    -0.391319490
 C       -2.010617253     1.935044731    -0.388169689
 C       -2.352014618     5.649073049    -0.024352521
 C       -1.718822063     6.783048493     0.320935616
 C       -2.326114873     8.109853364     0.296334568
 C       -3.649933651     8.323342188    -0.097424668
 C       -4.192667300     9.607750996    -0.106884322
 C       -3.426144014    10.706761360     0.292780668
 C       -2.099252259    10.495431969     0.690879845
 C       -1.556364891     9.213398131     0.687615931
Si       -4.116368514    12.410727257     0.290101081
 C       -3.431852355    13.428912075     1.645620218
 C       -3.030280410    12.927761621     2.821581503
 C       -2.480695076    13.731478032     3.914673934
 C       -2.096114205    13.084778858     5.098677610
 C       -1.570501424    13.798672705     6.163072375
 C       -1.444543932    15.199779300     6.082461427
 C       -1.817839560    15.848630750     4.896346114
 C       -2.303958240    15.113653202     3.820671378
 N       -0.899614211    15.880710051     7.202129952
 C       -1.614369399    15.667125339     8.477324601
 C       -0.541269601    17.292599405     6.982490554
 C       -3.034462573    16.261936520     8.531473957
 C       -4.117534258    15.205729571     8.235552312
 N       -5.394477090    15.745501011     7.717861541
 C       -5.283527896    16.117514749     6.333757628
 C       -5.593176999    15.112225892     5.404625879
 C       -5.513626754    15.381472095     4.046882751
 C       -5.113071316    16.645736231     3.587981186
 C       -4.817652706    17.641896700     4.521977664
 C       -4.917053908    17.390833983     5.887097399
 C       -5.974784219    16.796395577     8.572623574
 C       -5.045451550    16.878779196     2.142607070
 C       -4.677927982    18.040690480     1.588714042
Si       -4.574728546    18.390401240    -0.202051079
 C       -5.464832030    19.945386736    -0.602577086
 C       -6.495307327    20.401206241     0.228873840
 C       -7.172783338    21.580158280    -0.071563170
 C       -6.847222182    22.323287216    -1.213866099
 C       -5.822927386    21.860885474    -2.045220727
 C       -5.138450444    20.684015955    -1.744625928
 C       -7.585729580    23.552120007    -1.486030629
 C       -7.369102310    24.356802056    -2.540259199
 C       -8.106869536    25.585718818    -2.813431438
 C       -9.131097469    26.050607786    -1.984581347
 C       -9.810452753    27.231449581    -2.284035905
 C       -9.474336476    27.977595897    -3.417892357
 C       -8.446621859    27.513911587    -4.250509765
 C       -7.774362301    26.332073607    -3.952092594
Si      -10.360360407    29.538195294    -3.828228804
 C      -11.435605961    30.109944812    -2.415172455
 C       -9.061510159    30.865377824    -4.246778584
 C      -11.460965849    29.263317453    -5.356788489
 C       -2.732171228    18.509011388    -0.656736414
 C       -5.357630364    16.981923921    -1.213640787
 C       -3.711590212    13.274044426    -1.354219335
 C       -6.008092425    12.320552053     0.493606968
 C       -0.648869184    -0.913541326    -1.539576302
 C       -0.620927050    -0.917770259     1.547627902
 H        1.139149703     2.684256919     0.708127456
 H        0.198731471     4.923951611     0.694983183
 H       -3.568686355     3.379450510    -0.699259593
 H       -2.670030838     1.120501463    -0.700734208
 H       -3.395386563     5.673822025    -0.353148478
 H       -0.675903946     6.761793574     0.649789067
 H       -4.270602627     7.483954020    -0.405351746
 H       -5.231329197     9.710346746    -0.432461733
 H       -1.452712928    11.319302435     1.012848460
 H       -0.522537722     9.069448910     0.996467760
 H       -3.379586355    14.509106204     1.436036218
 H       -3.079203801    11.855309913     3.058597904
 H       -2.206265776    12.003267102     5.183814694
 H       -1.244822502    13.278527448     7.060399513
 H       -1.745274903    16.928085862     4.804591313
 H       -2.579509745    15.640311941     2.903815289
 H        0.016836685    17.661170547     7.860211939
 H       -1.400881960    17.959616540     6.812071269
 H        0.138808855    17.361991070     6.114328997
 H       -6.179531857    16.362869120     9.566579913
 H       -6.942159674    17.110679200     8.142692925
 H       -5.347823813    17.689808214     8.704831967
 H       -5.890535765    14.127380513     5.763441396
 H       -5.749394886    14.591810889     3.331217015
 H       -4.513314599    18.633609023     4.187150065
 H       -4.701561629    18.182622303     6.597998746
 H       -5.337340225    16.001681416     1.548843783
 H       -4.387520211    18.902026413     2.214252612
 H       -6.795005740    19.858690728     1.131615094
 H       -7.966799958    21.923722315     0.589035261
 H       -5.550535578    22.419543747    -2.938748622
 H       -4.345581340    20.373315009    -2.430507799
 H       -8.360360873    23.792504252    -0.751875989
 H       -6.594745605    24.115797975    -3.274482574
 H       -9.409493357    25.490460640    -1.093798101
 H      -10.603904209    27.543203682    -1.599146833
 H       -8.140104848    28.055830085    -5.149774411
 H       -6.980449339    25.987093115    -4.611771111
 H       -1.639357626    14.574265788     8.685733132
 H       -0.986900104    16.110605144     9.284298823
 H       -3.214267302    16.714927761     9.522227686
 H       -3.117217984    17.092871640     7.804285397
 H       -3.738729196    14.465843306     7.490368020
 H       -4.356227726    14.631142695     9.157479763
 H        2.262806004    -1.029643560    -0.043742395
 H        2.276181305     0.476922294     0.906855687
 H        2.259894265     0.546149074    -0.876152577
 H      -11.933432454    31.066345396    -2.655679905
 H      -10.836666757    30.269066026    -1.500110906
 H      -12.224807529    29.374927572    -2.178585301
 H       -8.482304208    30.463567945    -5.128513960
 C       -9.674067994    32.215112197    -4.660749431
 C       -8.065227326    31.097886352    -3.096377970
 H      -12.017564291    30.233138579    -5.508533675
 C      -10.671616335    28.961895055    -6.643211875
 C      -12.498546963    28.146034037    -5.142465410
 H       -2.695337317    18.689139745    -1.769678118
 C       -2.027700546    19.687584353     0.038171773
 C       -1.958261055    17.212615331    -0.356032116
 H       -4.929020414    16.023953698    -0.795552689
 C       -6.887914457    16.936071667    -1.054265427
 C       -5.016581764    17.037864099    -2.712658895
 H       -4.166631384    14.306724675    -1.287215013
 C       -2.196704242    13.436698393    -1.571151361
 C       -4.321062897    12.567369095    -2.576635905
 H       -6.374309495    11.665989478    -0.349408772
 C       -6.414703650    11.661528800     1.824118214
 C       -6.718898339    13.678378565     0.374233981
 H       -1.773337343    -0.926970121    -1.441606594
 C       -0.298636239    -0.184113560    -2.849170916
 C       -0.168535781    -2.372693194    -1.634837870
 H       -0.138908202    -1.937270320     1.513542898
 C       -0.189649602    -0.229143460     2.855499414
 C       -2.147633840    -1.112109225     1.572156290
 H      -10.342826837    32.141311306    -5.528032698
 H       -8.876930862    32.916869835    -4.946640537
 H      -10.231907420    32.699705370    -3.848496796
 H       -7.544972859    30.181949493    -2.781357784
 H       -8.533377839    31.535704169    -2.204840827
 H       -7.282302153    31.802085900    -3.412200132
 H       -9.955846352    29.749314992    -6.911011757
 H      -11.362158101    28.873743185    -7.494724112
 H      -10.124755400    28.009759346    -6.594395831
 H      -13.165085210    28.326942433    -4.289389513
 H      -12.038757750    27.157217070    -5.001437888
 H      -13.147344243    28.059970870    -6.025910025
 H       -2.504074138    20.658271783    -0.157485455
 H       -0.994324908    19.776945495    -0.326047166
 H       -1.960316286    19.564152561     1.127992895
 H       -2.357619946    16.333947277    -0.881511384
 H       -1.923410481    16.973539561     0.716813777
 H       -0.913172162    17.315048279    -0.680938273
 H       -7.215345708    16.806395988    -0.013344218
 H       -7.304191313    16.090900772    -1.620571862
 H       -7.386202383    17.835304166    -1.444855073
 H       -3.940264829    16.974992683    -2.917910170
 H       -5.400933027    17.940776109    -3.206945191
 H       -5.476630707    16.186053513    -3.234856472
 H       -1.693893913    13.978567793    -0.757848248
 H       -2.005977660    14.008162783    -2.490492350
 H       -1.678220911    12.475330500    -1.696775807
 H       -5.415848563    12.499830088    -2.540219510
 H       -3.929064980    11.550982520    -2.724512266
 H       -4.078271397    13.123396394    -3.493761915
 H       -6.014460765    10.645785426     1.948004591
 H       -7.508152816    11.567747692     1.881413657
 H       -6.107091595    12.245166547     2.704257696
 H       -6.523183820    14.189573315    -0.577791959
 H       -6.461468150    14.370195812     1.188741099
 H       -7.808339003    13.538259972     0.426761748
 H       -0.660398715     0.853714929    -2.878109752
 H       -0.765438070    -0.695945670    -3.702709410
 H        0.780034246    -0.163527514    -3.053836259
 H       -0.445640144    -2.979638675    -0.763261578
 H        0.917748638    -2.458188625    -1.770538078
 H       -0.625919507    -2.861767364    -2.507243187
 H        0.898241513    -0.123269332     2.954967037
 H       -0.520523492    -0.822348499     3.720086053
 H       -0.634506809     0.768751176     2.979274321
 H       -2.528118633    -1.682279334     0.715287593
 H       -2.698417038    -0.161780457     1.616377558
 H       -2.439931763    -1.676840032     2.469471760

