187   

Si        0.000000000     0.000000000     0.000000000
 C        1.865365721     0.000000000     0.000000000
 C       -0.681897120     1.709861124     0.000000000
 C        0.134886821     2.816069535     0.253968365
 C       -0.396378047     4.105902849     0.250561250
 C       -1.754311061     4.318798470     0.000426547
 C       -2.572214440     3.208792553    -0.250830079
 C       -2.044543408     1.920787359    -0.251550851
 C       -2.354590687     5.648550234    -0.013415318
 C       -1.686754559     6.793680648     0.207444025
 C       -2.291158817     8.121821719     0.192665678
 C       -1.478005096     9.235764461     0.439634920
 C       -2.011414182    10.522505764     0.435564462
 C       -3.376143860    10.721644113     0.199455741
 C       -4.192003425     9.611123757    -0.045630639
 C       -3.651872086     8.326395461    -0.054120577
Si       -4.111681053    12.407897365     0.187415599
 C       -5.874208345    12.279531636     0.652363812
 C       -6.901214487    12.821272122    -0.013702709
 C       -8.301643874    12.692890897     0.395827607
 C       -9.286742304    13.309749821    -0.390817158
 C      -10.626512470    13.221096164    -0.050950683
 C      -11.014276064    12.465682037     1.069009444
 C      -10.040635511    11.838274306     1.853273102
 C       -8.694936708    11.965507484     1.520446977
 N      -12.418367695    12.426530599     1.349935573
 C      -13.124118413    11.501948302     0.432762682
 C      -12.760278257    12.200126826     2.765164946
 C      -12.795065307    10.010690817     0.651665442
 C      -13.011855635     9.172856829    -0.623488420
 N      -11.777808251     8.838727572    -1.364740619
 C      -11.102526533     9.927945229    -1.964580657
 C      -11.845687795    10.816740182    -2.768681391
 C      -11.223374656    11.895796265    -3.374271193
 C       -9.839812616    12.093586580    -3.255648704
 C       -9.099900509    11.186381249    -2.492978335
 C       -9.713381681    10.109847474    -1.863013271
 C      -10.934923418     7.869029650    -0.643680239
 C       -9.238038390    13.251852892    -3.917671122
 C       -7.932566887    13.552031266    -3.881316987
Si       -7.208367952    15.007999214    -4.719327281
 C       -8.152423606    15.461661699    -6.229128268
 C       -8.739491194    14.455473748    -7.005409788
 C       -9.459949348    14.776281834    -8.154411276
 C       -9.600059308    16.106335235    -8.561303693
 C       -9.004525849    17.111054087    -7.787740335
 C       -8.287168780    16.793758918    -6.636621046
 C      -10.344867202    16.488536527    -9.756453772
 C      -10.961169220    15.625244244   -10.581512183
 C      -11.706372421    16.005449735   -11.776991108
 C      -11.851703989    17.334002715   -12.184422567
 C      -12.573163886    17.652325255   -13.334896854
 C      -13.172322717    16.646800683   -14.099870387
 C      -13.028785586    15.313376711   -13.692794191
 C      -12.302673412    14.998261168   -12.547691903
Si      -14.127817624    17.050058115   -15.620799265
 C      -14.497492442    18.874824335   -15.736165150
 C      -13.126907819    16.531627580   -17.154588479
 C      -15.748260190    16.051776460   -15.589617631
 C       -7.212200496    16.455602136    -3.481128710
 C       -5.409058202    14.616950797    -5.186662955
 C       -3.217446720    13.580154421     1.378804534
 C       -3.954151397    13.056752007    -1.597460140
 C       -0.656305266    -0.900769296    -1.543207556
 C       -0.608372309    -0.927054469     1.547146988
 H        1.204299778     2.712393067     0.457088721
 H        0.261911338     4.950241259     0.447047758
 H       -3.632614687     3.352703645    -0.448900449
 H       -2.731089562     1.094457713    -0.456583809
 H       -3.428109708     5.662814191    -0.223796144
 H       -0.613378810     6.780850394     0.417592297
 H       -0.416293483     9.097415395     0.634717819
 H       -1.328814813    11.354309129     0.628602107
 H       -5.266407136     9.710133910    -0.236411258
 H       -4.304385575     7.477988807    -0.251999157
 H       -6.037692413    11.704029949     1.578909079
 H       -6.773272108    13.404422014    -0.936399175
 H       -8.997159772    13.880517576    -1.277160627
 H      -11.385946100    13.722193811    -0.649653101
 H      -10.324094654    11.254223027     2.723128859
 H       -7.947147252    11.478206287     2.146451070
 H      -13.839511459    12.391854295     2.896121758
 H      -12.218750935    12.933338132     3.388593927
 H      -12.539056236    11.190091163     3.139622004
 H      -11.556181644     7.017091345    -0.319177673
 H      -10.425468578     8.284930869     0.240491327
 H      -10.174264562     7.466216938    -1.336825627
 H      -12.910724079    10.656088788    -2.912395542
 H      -11.819153955    12.589704180    -3.968669600
 H       -8.021926837    11.318379697    -2.378183174
 H       -9.104534270     9.438887282    -1.264631102
 H       -9.971392313    13.861775369    -4.465363682
 H       -7.214249844    12.929180146    -3.326609635
 H       -8.659495506    13.395685587    -6.738934104
 H       -9.912506204    13.976122634    -8.737559272
 H       -9.100699650    18.152834262    -8.087227946
 H       -7.844744892    17.620359237    -6.074219801
 H      -10.374905847    17.564248634    -9.952645768
 H      -10.930097408    14.549350356   -10.385117877
 H      -11.398765728    18.135812803   -11.604115620
 H      -12.650871766    18.709378496   -13.603893947
 H      -13.475133050    14.485585454   -14.251065014
 H      -12.200405375    13.956660883   -12.248881556
 H      -14.214811073    11.679764910     0.549526438
 H      -12.863523138    11.803162716    -0.609659861
 H      -11.744456397     9.910115526     0.990409344
 H      -13.409746232     9.608167989     1.475314094
 H      -13.510905998     8.210822581    -0.364161116
 H      -13.711112569     9.688133802    -1.318857752
 H        2.262900101    -1.030123372    -0.034915381
 H        2.274868772     0.483912333     0.903989096
 H        2.261622577     0.538226728    -0.880196906
 H      -15.101720313    19.102509343   -16.632460657
 H      -13.573794607    19.476654726   -15.796438655
 H      -15.068518720    19.219789907   -14.855039372
 H      -13.737995994    16.863827371   -18.043129799
 C      -11.757203027    17.231053125   -17.229210354
 C      -12.910910091    15.011873725   -17.266664006
 H      -15.441764336    14.965720758   -15.557708626
 C      -16.592753320    16.338689732   -14.334797841
 C      -16.621503693    16.258555583   -16.839837984
 H       -6.754222963    17.329485625    -4.027578330
 C       -8.637537748    16.849093825    -3.053394308
 C       -6.370396837    16.193518123    -2.219837148
 H       -4.881254112    14.369999151    -4.218247708
 C       -5.299218016    13.397871911    -6.119157590
 C       -4.679248190    15.807622552    -5.831538227
 H       -2.145140613    13.625020679     1.029226326
 C       -3.786216854    15.010507004     1.350771638
 C       -3.222261494    13.064835328     2.829056789
 H       -4.615752911    13.968546820    -1.663659832
 C       -2.525160467    13.479682493    -1.977073112
 C       -4.452920587    12.017062451    -2.617802458
 H       -1.781225578    -0.896770534    -1.448442163
 C       -0.292104878    -0.172524674    -2.849700552
 C       -0.197076396    -2.366392960    -1.640916825
 H       -0.104767683    -1.936406646     1.513873367
 C       -0.192160168    -0.228639431     2.854745216
 C       -2.130195287    -1.155622093     1.573735937
 H      -11.825964608    18.326438408   -17.236905755
 H      -11.240634461    16.949455425   -18.158031984
 H      -11.086628666    16.945578298   -16.405803043
 H      -13.846664194    14.439975263   -17.303751248
 H      -12.298974871    14.606352340   -16.448598241
 H      -12.371870260    14.777192669   -18.196204768
 H      -16.049501290    16.159066917   -13.395922439
 H      -17.470964888    15.677815133   -14.312229494
 H      -16.978472463    17.366221731   -14.302358878
 H      -16.107711222    16.004784353   -17.776088516
 H      -16.999510713    17.285232837   -16.933404231
 H      -17.507500586    15.608919654   -16.790182703
 H       -9.288710909    17.117192939    -3.896532211
 H       -8.606188892    17.731492026    -2.398925888
 H       -9.147065687    16.059337361    -2.481705388
 H       -5.317286865    15.973505095    -2.436408541
 H       -6.770205962    15.376782380    -1.601451960
 H       -6.369137452    17.086431597    -1.577608127
 H       -5.762683496    12.489152902    -5.710411720
 H       -4.242761835    13.153164953    -6.299443313
 H       -5.743224909    13.577418242    -7.109099284
 H       -4.629679108    16.691830629    -5.183440214
 H       -5.125860455    16.118379716    -6.786929998
 H       -3.638382798    15.533820043    -6.057240195
 H       -3.738147134    15.478608582     0.358994686
 H       -3.208340170    15.658549037     2.025064326
 H       -4.829299507    15.063152544     1.694909362
 H       -2.792614496    12.059078186     2.936860310
 H       -4.227343931    13.045676648     3.272993533
 H       -2.617577911    13.726093056     3.466173918
 H       -2.127384529    14.286026306    -1.348092847
 H       -2.506493317    13.858328755    -3.009728589
 H       -1.808962118    12.646858229    -1.945920453
 H       -5.499903622    11.720914881    -2.465203380
 H       -3.849126198    11.097631198    -2.622286767
 H       -4.386784334    12.421564030    -3.638717666
 H       -0.639521243     0.870293038    -2.876421477
 H       -0.764444517    -0.674988504    -3.705837823
 H        0.787154167    -0.166818260    -3.051849900
 H       -0.486348817    -2.971714109    -0.772165978
 H        0.888361037    -2.467452245    -1.772603882
 H       -0.658119910    -2.846213309    -2.516557620
 H        0.893171533    -0.098710041     2.954337820
 H       -0.510112193    -0.828262356     3.719714452
 H       -0.658050268     0.759703204     2.977864133
 H       -2.501966386    -1.718840542     0.708503399
 H       -2.701136381    -0.218694968     1.638127966
 H       -2.405712218    -1.742597263     2.462121616

