187   

Si        0.000000000     0.000000000     0.000000000
 C        1.865105169     0.000000000     0.000000000
 C       -0.652578789     1.720646205     0.000000000
 C        0.000190016     2.711545912     0.742760825
 C       -0.479306827     4.020350910     0.754954206
 C       -1.614851184     4.371052153     0.019156300
 C       -2.269016371     3.376731106    -0.718162854
 C       -1.801671627     2.065287627    -0.721116047
 C       -2.151451233     5.727150795     0.002598900
 C       -1.624187178     6.761972706     0.677419870
 C       -2.156458572     8.119703596     0.664493264
 C       -1.496148556     9.096958955     1.420940395
 C       -1.960242177    10.407968226     1.445051139
 C       -3.113106261    10.765399471     0.732283684
 C       -3.774947117     9.793818806    -0.023088703
 C       -3.291066251     8.485749174    -0.064600093
Si       -3.692472620    12.505924758     0.790068455
 C       -5.485291265    12.667547700     0.464322493
 C       -6.030441876    13.514771293    -0.417977027
 C       -7.467909980    13.637868674    -0.672787583
 C       -7.898540703    14.570850508    -1.628576278
 C       -9.244936782    14.731683739    -1.911931765
 C      -10.204661568    13.921777570    -1.273563215
 C       -9.778489504    12.979201419    -0.327343934
 C       -8.425436398    12.851213496    -0.028241131
 N      -11.567360654    14.140371636    -1.611079963
 C      -11.897017960    13.917002166    -3.031876695
 C      -12.559433726    13.557648368    -0.692770749
 C      -12.038767704    12.432054392    -3.414955950
 C      -11.489014854    12.131808094    -4.821154761
 N      -10.084491485    11.689643392    -4.846210093
 C       -9.754642787    10.527063254    -4.130542721
 C      -10.747302491     9.584269370    -3.787795258
 C      -10.415117878     8.438856100    -3.081336648
 C       -9.083919606     8.144899744    -2.761970775
 C       -8.095929431     9.065434677    -3.128132557
 C       -8.416871370    10.241345291    -3.790486110
 C       -9.111860200    12.793301564    -4.800898855
 C       -8.787858262     6.921948145    -2.014183254
 C       -7.550315901     6.553361573    -1.661563779
Si       -7.072336623     5.055590855    -0.732949051
 C       -5.971324477     5.564723070     0.648534524
 C       -5.962563535     6.896295812     1.075874525
 C       -5.132396885     7.294992416     2.122162126
 C       -4.311452825     6.370735286     2.773582413
 C       -4.333321659     5.034541000     2.352670640
 C       -5.157410446     4.633037044     1.304541775
 C       -3.429992813     6.750962936     3.871988394
 C       -3.325253694     7.998823927     4.359350963
 C       -2.449172502     8.393366152     5.455989957
 C       -1.616020737     7.488981002     6.119226028
 C       -0.794031767     7.912063683     7.163850913
 C       -0.787041521     9.251356653     7.565500265
 C       -1.619273914    10.161110782     6.899219416
 C       -2.436933026     9.735965337     5.856775856
Si        0.289189569     9.830540395     8.940651047
 C        1.004987852     8.402765310     9.904213017
 C        1.716827781    10.865942800     8.222969743
 C       -0.750498464    10.942168488    10.083935445
 C       -8.571919008     4.134279739    -0.021677370
 C       -6.123658624     3.915572922    -1.928747961
 C       -3.386040988    13.199588982     2.538648359
 C       -2.674202139    13.509506711    -0.463693417
 C       -0.647082887    -0.935729767    -1.526559318
 C       -0.646640858    -0.886360282     1.555712330
 H        0.897616462     2.498972464     1.330073296
 H        0.043423309     4.771952875     1.343956943
 H       -3.160832040     3.626850357    -1.291674893
 H       -2.361187104     1.331948774    -1.307535440
 H       -3.051897773     5.860098079    -0.605317474
 H       -0.732945994     6.627119136     1.297593006
 H       -0.613876905     8.829602894     2.000195407
 H       -1.398009367    11.127047341     2.047695160
 H       -4.678135282    10.021665113    -0.597473309
 H       -3.819154177     7.741490452    -0.659905769
 H       -6.113508238    11.997330612     1.074308166
 H       -5.428917223    14.195236860    -1.035667372
 H       -7.167090679    15.194654515    -2.142474206
 H       -9.568411663    15.493217571    -2.617849619
 H      -10.494405277    12.330819605     0.169584103
 H       -8.114842577    12.110531337     0.710781799
 H      -13.559116849    13.941864223    -0.959556924
 H      -12.343734732    13.897817836     0.336029377
 H      -12.597590788    12.456941224    -0.700406020
 H       -9.504058875    13.675245275    -5.331116296
 H       -8.191090470    12.485216238    -5.329722725
 H       -8.846211961    13.094604738    -3.771245363
 H      -11.784539904     9.748848215    -4.061043049
 H      -11.205991362     7.746033110    -2.792696404
 H       -7.050488818     8.868788357    -2.881606682
 H       -7.622123352    10.939085182    -4.036814757
 H       -9.679459302     6.333432101    -1.767125582
 H       -6.679170473     7.172511278    -1.941982916
 H       -6.589831677     7.663801891     0.610188162
 H       -5.126440264     8.341652384     2.424704964
 H       -3.695706131     4.301231582     2.843390791
 H       -5.130605674     3.578625799     1.016928645
 H       -2.836410188     5.933284341     4.289811147
 H       -3.916275917     8.814075044     3.929851780
 H       -1.603685729     6.441059398     5.825147037
 H       -0.166693839     7.159018169     7.647968458
 H       -1.655979779    11.219713617     7.170895116
 H       -3.075935174    10.457414898     5.349805110
 H      -12.846439496    14.461030730    -3.239081704
 H      -11.119977036    14.409927769    -3.656884159
 H      -11.509035305    11.801138490    -2.669418715
 H      -13.097471292    12.125005554    -3.351223724
 H      -12.099316376    11.333396109    -5.307613952
 H      -11.593361827    13.018480906    -5.485005392
 H        2.264459634    -1.028845389    -0.041508520
 H        2.277072625     0.482374299     0.903279547
 H        2.256600525     0.545869086    -0.878149619
 H        1.620311895     8.760749654    10.748871415
 H        1.646362889     7.763792286     9.272405175
 H        0.203619535     7.767259278    10.323128786
 H        2.363117494    11.148261032     9.103514547
 C        2.582419196    10.066973691     7.231110121
 C        1.253801216    12.163553106     7.536311228
 H       -1.095837021    11.806050957     9.444586803
 C       -2.002371868    10.225894560    10.622101014
 C        0.044952277    11.520832455    11.267660636
 H       -9.244868057     3.909106770    -0.898750997
 C       -8.200208686     2.800560533     0.651778184
 C       -9.365828579     4.988823736     0.983837033
 H       -5.578656164     3.168592914    -1.282557356
 C       -7.042050123     3.133656590    -2.884875125
 C       -5.083478839     4.681003569    -2.768232373
 H       -2.278878847    13.095647397     2.729116300
 C       -3.751510507    14.687965555     2.669568707
 C       -4.134401240    12.400135170     3.620539127
 H       -3.097101995    14.555101365    -0.446419262
 C       -1.180659451    13.595258434    -0.102210853
 C       -2.806465378    12.959738330    -1.895981449
 H       -1.773261437    -0.887476686    -1.466138627
 C       -0.214733271    -0.281114028    -2.851397510
 C       -0.243548416    -2.421315869    -1.550779761
 H       -0.207675390    -1.924857251     1.526127919
 C       -0.186648811    -0.210751648     2.860588769
 C       -2.180811273    -1.014191700     1.580563064
 H        3.024706220     9.162673460     7.668579452
 H        3.423908344    10.683333931     6.883778459
 H        2.029657490     9.764705457     6.329967147
 H        0.691436217    12.831634847     8.200774308
 H        0.639315803    11.977463661     6.644029588
 H        2.126503536    12.737642386     7.192448373
 H       -2.653074884     9.834693320     9.826736360
 H       -2.617114511    10.926768857    11.204588097
 H       -1.763956991     9.391076118    11.294373340
 H        0.918343228    12.109220088    10.958205047
 H        0.391974599    10.749484245    11.967941322
 H       -0.592635439    12.200827988    11.851249704
 H       -7.683662396     2.100468660    -0.017016761
 H       -9.109904038     2.285719167     0.992487829
 H       -7.573111259     2.935368439     1.545139677
 H       -9.713505234     5.944825262     0.569391845
 H       -8.792655247     5.215917636     1.894669155
 H      -10.264425889     4.448338647     1.312122140
 H       -7.760999929     2.485509503    -2.368265403
 H       -6.441805061     2.474066475    -3.527845991
 H       -7.611170522     3.785841403    -3.561917832
 H       -4.384898026     5.280549610    -2.168616631
 H       -5.547011960     5.354968405    -3.503036074
 H       -4.472171137     3.974241148    -3.347618751
 H       -3.189989879    15.336100091     1.984559062
 H       -3.524351971    15.044089031     3.684528167
 H       -4.821239605    14.883243832     2.507816291
 H       -3.914489187    11.322891932     3.592204450
 H       -5.225145329    12.518402679     3.560301114
 H       -3.841955481    12.755225665     4.619111076
 H       -0.994297856    14.069938309     0.869553794
 H       -0.647596862    14.203040324    -0.847614488
 H       -0.684608908    12.613840390    -0.097933338
 H       -3.843956692    12.906383197    -2.253081899
 H       -2.368544972    11.956887543    -2.007727131
 H       -2.268892080    13.609384236    -2.600704192
 H       -0.497634411     0.778205130    -2.928571033
 H       -0.695145382    -0.790903309    -3.698502884
 H        0.867735532    -0.345721590    -3.025897493
 H       -0.594414481    -2.980874194    -0.674038185
 H        0.841435153    -2.569974235    -1.630494038
 H       -0.686250565    -2.915924735    -2.427545988
 H        0.904804665    -0.151302048     2.958756592
 H       -0.541650259    -0.786504926     3.727374960
 H       -0.590461586     0.805034588     2.979932699
 H       -2.584320971    -1.575165250     0.728041139
 H       -2.690225865    -0.040186606     1.612876303
 H       -2.498336973    -1.557361055     2.482290117

