187   

Si        0.000000000     0.000000000     0.000000000
 C        1.865078447     0.000000000     0.000000000
 C       -0.679363913     1.711063172     0.000000000
 C        0.111896084     2.799191437     0.382083588
 C       -0.410818683     4.092285084     0.379178104
 C       -1.735327517     4.326634508     0.000813357
 C       -2.528341071     3.234797296    -0.376809957
 C       -2.009329315     1.943043335    -0.375683275
 C       -2.325014439     5.661204523    -0.017610657
 C       -1.676942960     6.789297880     0.319075867
 C       -2.267478183     8.123562923     0.300354028
 C       -3.593108798     8.355114546    -0.078696572
 C       -4.117593914     9.646678051    -0.082332583
 C       -3.322040244    10.736810788     0.287275147
 C       -1.994078021    10.509180711     0.668007102
 C       -1.476118265     9.216298290     0.677573842
Si       -4.011016885    12.440999568     0.283401374
 C       -2.653430841    13.665558648     0.251554911
 C       -2.527210558    14.715411372     1.073048890
 C       -1.420929286    15.673827866     1.012337804
 C       -1.397926627    16.736458424     1.929516301
 C       -0.374346816    17.669195409     1.913833740
 C        0.646637881    17.582655054     0.946159617
 C        0.629488285    16.521593836     0.030477776
 C       -0.384770658    15.570543262     0.082202245
 N        1.668313217    18.571057618     0.984244957
 C        1.176456736    19.944744410     0.729571458
 C        2.884783340    18.258654726     0.213271103
 C        0.460110688    20.129130877    -0.620531966
 C       -1.071648522    20.020049409    -0.476232419
 N       -1.755760702    19.625007886    -1.719918572
 C       -1.559045844    20.451413629    -2.840755676
 C       -1.470199652    21.849908207    -2.665747447
 C       -1.276691998    22.681976202    -3.755595682
 C       -1.212145062    22.168476637    -5.059166692
 C       -1.331866403    20.787329474    -5.233142489
 C       -1.510430802    19.936429002    -4.149742079
 C       -1.738157701    18.170849199    -1.947040906
 C       -1.005941188    23.094077676    -6.174246304
 C       -0.927866942    22.719653992    -7.457855415
Si       -0.671859766    23.835047623    -8.882376104
 C       -1.927165357    23.491404715   -10.182327341
 C       -3.101728758    22.799371476    -9.869613440
 C       -4.053021885    22.539130862   -10.855475098
 C       -3.856847292    22.972264199   -12.169593459
 C       -2.681657587    23.670482077   -12.478710492
 C       -1.727597411    23.928480609   -11.498014249
 C       -4.823898110    22.723126414   -13.233421651
 C       -5.986528345    22.068450587   -13.073760631
 C       -6.952543736    21.820165960   -14.138825176
 C       -6.752696170    22.250382265   -15.453131134
 C       -7.702797785    21.991431486   -16.440875673
 C       -8.879002823    21.300634355   -16.132942916
 C       -9.082240724    20.868444232   -14.815318118
 C       -8.129348062    21.123316766   -13.832930030
Si      -10.142158871    20.951378634   -17.425547196
 C       -9.839140847    21.954583727   -18.968846414
 C      -10.092378810    19.102910491   -17.877086391
 C      -11.859252765    21.351906350   -16.707838670
 C       -0.801153596    25.658375603    -8.356903766
 C        1.066756045    23.524347020    -9.591239031
 C       -5.069214163    12.694290735    -1.278003103
 C       -5.114561390    12.675734166     1.813595287
 C       -0.650971821    -0.910574373    -1.540134790
 C       -0.621881069    -0.917499526     1.547209514
 H        1.154985322     2.678582820     0.687501844
 H        0.227111949     4.922392916     0.677297456
 H       -3.562846042     3.395163839    -0.674472109
 H       -2.675931372     1.131088426    -0.679507671
 H       -3.371415927     5.694114067    -0.334983897
 H       -0.630628207     6.756439591     0.636864061
 H       -4.229470115     7.523212079    -0.374562994
 H       -5.161246395     9.765749084    -0.386330907
 H       -1.329078853    11.324640035     0.970337182
 H       -0.442846946     9.056759824     0.980456755
 H       -1.912414760    13.471614573    -0.542408992
 H       -3.250492764    14.940106614     1.867681255
 H       -2.189858488    16.824152050     2.673870424
 H       -0.345520865    18.465555009     2.654756028
 H        1.404009470    16.428773199    -0.725245682
 H       -0.368978819    14.741972229    -0.627665988
 H        3.671809079    18.982401935     0.490200921
 H        2.753876561    18.290214409    -0.879517205
 H        3.254112297    17.258337082     0.500036279
 H       -1.933936412    17.639839056    -0.996328817
 H       -0.782975995    17.797105407    -2.348790043
 H       -2.556233170    17.899685650    -2.637973021
 H       -1.550940665    22.281032009    -1.672124174
 H       -1.189112808    23.756865358    -3.594899710
 H       -1.286638935    20.360827210    -6.236687112
 H       -1.597052816    18.869641659    -4.330004733
 H       -0.924699321    24.141470474    -5.854842347
 H       -1.006183485    21.657762087    -7.744943326
 H       -3.311964605    22.441094124    -8.856320570
 H       -4.957172381    21.994623177   -10.589372674
 H       -2.510077373    24.016241201   -13.496110577
 H       -0.829694386    24.475754556   -11.797615151
 H       -4.537376152    23.116869607   -14.213077725
 H       -6.273847356    21.674633198   -12.094415998
 H       -5.847595332    22.793827610   -15.718238991
 H       -7.490116555    22.352700903   -17.450834206
 H       -9.982693350    20.324625734   -14.516115168
 H       -8.304369224    20.778301410   -12.815613780
 H        0.506936557    20.227327918     1.572624220
 H        2.048555689    20.633547954     0.796621481
 H        0.723030910    21.107083724    -1.065126845
 H        0.822182087    19.379492201    -1.350034278
 H       -1.339475659    19.279477554     0.313205971
 H       -1.498731823    20.988704845    -0.131963989
 H        2.262812612    -1.029445769    -0.049435010
 H        2.276132803     0.471649877     0.909643372
 H        2.260030348     0.550799360    -0.873134710
 H      -10.628125752    21.775848419   -19.721012732
 H       -8.871096821    21.703839339   -19.436704750
 H       -9.835069276    23.036516162   -18.743295018
 H      -10.843279717    18.972472786   -18.709131163
 C       -8.714677145    18.661173898   -18.403945347
 C      -10.498402541    18.173471972   -16.719401082
 H      -11.986695319    20.673894528   -15.814276627
 C      -11.966967869    22.806092571   -16.214344535
 C      -13.014355839    21.066605829   -17.683966443
 H       -0.086996313    25.782358393    -7.491897501
 C       -0.384623567    26.646402228    -9.461153162
 C       -2.214413114    26.029020890    -7.870913642
 H        1.192627124    24.258509492   -10.438754828
 C        2.188126620    23.779784712    -8.568906852
 C        1.223963302    22.105200205   -10.165766260
 H       -5.916410633    11.952805866    -1.202990793
 C       -5.676311952    14.105104891    -1.370132416
 C       -4.291214611    12.396558296    -2.572088505
 H       -5.423011921    13.761384539     1.809761165
 C       -6.393162651    11.819651688     1.782374073
 C       -4.363048098    12.393274710     3.127331606
 H       -1.775642892    -0.919275014    -1.443375927
 C       -0.296348167    -0.182118538    -2.849109822
 C       -0.176795546    -2.371735979    -1.635158456
 H       -0.137406700    -1.935953503     1.515258090
 C       -0.194873782    -0.226575366     2.855258508
 C       -2.148150594    -1.115620848     1.569164070
 H       -8.385825410    19.220830630   -19.288991703
 H       -8.747299627    17.603977865   -18.704071045
 H       -7.921975909    18.741121758   -17.646052058
 H      -11.510297131    18.365299013   -16.340729217
 H       -9.803901744    18.222956346   -15.868844706
 H      -10.491768240    17.127176975   -17.058268110
 H      -11.204211894    23.068200376   -15.467007333
 H      -12.940151472    22.968789994   -15.729586149
 H      -11.899807754    23.541429743   -17.027038833
 H      -13.046924884    20.024245040   -18.026388885
 H      -12.992619379    21.710319772   -18.573291596
 H      -13.978458818    21.257813908   -17.190497181
 H        0.651555840    26.513625297    -9.796902143
 H       -0.455149892    27.678249203    -9.087170744
 H       -1.034812479    26.598566689   -10.345978197
 H       -2.580050643    25.392633223    -7.053303257
 H       -2.963946149    25.990832656    -8.674700094
 H       -2.224686221    27.059428220    -7.489116592
 H        2.192698679    24.803937505    -8.174274953
 H        3.169375568    23.627251388    -9.040341368
 H        2.148840579    23.093120000    -7.711096506
 H        0.479425305    21.863082315   -10.937335545
 H        1.170770764    21.323176491    -9.396009722
 H        2.207395451    21.999639754   -10.645310222
 H       -6.321916930    14.357605568    -0.519046036
 H       -6.307065392    14.185274668    -2.267189636
 H       -4.916035299    14.894686649    -1.457310745
 H       -3.860305786    11.385583772    -2.598431844
 H       -3.476831476    13.110222281    -2.756930296
 H       -4.963393375    12.464545909    -3.439458936
 H       -7.039253788    12.031509376     0.921012849
 H       -7.001092714    12.020708200     2.676737701
 H       -6.186494241    10.740091081     1.791812667
 H       -3.452290448    12.994494911     3.252633090
 H       -4.075128371    11.337162793     3.234079154
 H       -5.006817735    12.624559460     3.987686919
 H       -0.655980837     0.856410888    -2.878952417
 H       -0.762453499    -0.693066563    -3.703586003
 H        0.782768996    -0.163851950    -3.051615553
 H       -0.457017209    -2.977561430    -0.763795026
 H        0.909197999    -2.461898039    -1.770131135
 H       -0.635696210    -2.858805998    -2.507899015
 H        0.892495628    -0.117161356     2.956569618
 H       -0.525316419    -0.820133453     3.719793312
 H       -0.643023256     0.770037065     2.977603040
 H       -2.525635952    -1.687527356     0.712123213
 H       -2.701498915    -0.166754960     1.611815214
 H       -2.440520029    -1.680411445     2.466457563

