187   

Si        0.000000000     0.000000000     0.000000000
 C        1.865360040     0.000000000     0.000000000
 C       -0.677433430     1.711568281     0.000000000
 C        0.118248898     2.800031384    -0.371706938
 C       -0.402837166     4.093637585    -0.368954886
 C       -1.730976168     4.328121773    -0.003331047
 C       -2.528564976     3.235808195     0.363295917
 C       -2.010621937     1.943575233     0.363913038
 C       -2.318539047     5.663562587     0.014197206
 C       -1.664873600     6.791706979    -0.311359495
 C       -2.252652378     8.127222849    -0.293776132
 C       -3.581428122     8.361033853     0.072114983
 C       -4.102260826     9.654107738     0.074854379
 C       -3.299914963    10.743570842    -0.281320648
 C       -1.968455559    10.513396276    -0.648478493
 C       -1.454113685     9.219185802    -0.657900766
Si       -3.982871730    12.452064637    -0.279203506
 C       -2.617594084    13.665662686    -0.240465309
 C       -2.477055123    14.716431952    -1.059141147
 C       -1.364836360    15.665528419    -0.992434598
 C       -1.324948401    16.729626673    -1.905307879
 C       -0.294940201    17.654888823    -1.884688927
 C        0.771851928    17.516725620    -0.967964845
 C        0.733576248    16.446961123    -0.052241208
 C       -0.330953887    15.555561512    -0.058525064
 N        1.804767595    18.462239635    -0.961692453
 C        2.217843758    19.042784704    -2.249255565
 C        2.894512046    18.274691436     0.004214086
 C        2.524597426    18.030453022    -3.368682132
 C        3.874418716    17.305592295    -3.224977515
 N        5.086477963    18.134094702    -3.384798101
 C        5.529303407    18.781979097    -2.203088188
 C        5.940810451    17.959243518    -1.134954250
 C        6.384905971    18.525812844     0.048393645
 C        6.464090404    19.919341437     0.196328267
 C        6.082660074    20.728698227    -0.876250273
 C        5.632521159    20.174181389    -2.069788452
 C        5.087177812    18.951739695    -4.607180842
 C        6.940698295    20.465773173     1.469315728
 C        7.057990715    21.774863161     1.725285724
Si        7.645954551    22.510781314     3.292681313
 C        8.952166121    23.757124791     2.945938848
 C        9.668151469    23.714255240     1.743410695
 C       10.657925297    24.657698844     1.479322258
 C       10.963918282    25.657014207     2.412287092
 C       10.251325006    25.692267675     3.614575438
 C        9.256401323    24.752718892     3.880666922
 C       12.009272377    26.622504655     2.089019505
 C       12.395386200    27.629576430     2.890721559
 C       13.440672762    28.595073202     2.567572135
 C       14.153391680    28.560721799     1.366358014
 C       15.145208743    29.504119670     1.098382471
 C       15.440836484    30.508524935     2.025264734
 C       14.726512954    30.545726778     3.230573491
 C       13.741435105    29.599255496     3.497825041
Si       16.747018668    31.760882026     1.686190517
 C       17.260035089    31.747754165    -0.107268792
 C       16.070058821    33.474742554     2.163754316
 C       18.272802201    31.392409611     2.762774389
 C        6.166559814    23.352864704     4.143097486
 C        8.346385652    21.182842437     4.459239265
 C       -5.071564422    12.691014874    -1.819912545
 C       -5.057710501    12.697636492     1.272009272
 C       -0.619161322    -0.918526802    -1.547666303
 C       -0.652262587    -0.910245246     1.539796359
 H        1.163924929     2.678822815    -0.667732353
 H        0.238783898     4.923956089    -0.658198285
 H       -3.565798123     3.396521133     0.651092084
 H       -2.681045582     1.131678125     0.659321155
 H       -3.368045559     5.697861080     0.320732949
 H       -0.615415283     6.758256460    -0.618378173
 H       -4.223211065     7.530094854     0.358299870
 H       -5.148773599     9.775104257     0.367820528
 H       -1.298018793    11.328842464    -0.939089375
 H       -0.418145235     9.057735652    -0.949649847
 H       -1.883675055    13.467250386     0.558481199
 H       -3.193997050    14.947581732    -1.857826240
 H       -2.125776233    16.841859837    -2.636850323
 H       -0.313976825    18.492550161    -2.575170168
 H        1.530800924    16.306763093     0.670306955
 H       -0.344478692    14.745126170     0.672338014
 H        3.613656682    19.112205718    -0.065772444
 H        3.455258473    17.336226797    -0.136328324
 H        2.479486900    18.296998895     1.028747081
 H        4.896035318    18.294538272    -5.473771278
 H        6.091580668    19.390211273    -4.747726344
 H        4.344724096    19.764750794    -4.615063625
 H        5.916764737    16.877420807    -1.251806235
 H        6.693620370    17.877198534     0.868805141
 H        6.139638013    21.814777661    -0.786882954
 H        5.348199926    20.830565869    -2.886837428
 H        7.200641616    19.690762381     2.202022919
 H        6.782048555    22.529181861     0.969058299
 H        9.476049328    22.952766038     0.980653163
 H       11.200740686    24.613268198     0.536905717
 H       10.469753028    26.458306158     4.356270086
 H        8.731878127    24.831515650     4.836895048
 H       12.482519325    26.474612318     1.113850881
 H       11.922025217    27.777274323     3.865819673
 H       13.939672219    27.791929506     0.626139865
 H       15.669700895    29.425064335     0.142103190
 H       14.913862354    31.308148581     3.992050938
 H       13.198622269    29.643376735     4.440104902
 H        1.396113365    19.722041158    -2.583021729
 H        3.099211976    19.702649848    -2.079069950
 H        1.721666424    17.263718255    -3.407154204
 H        2.474310705    18.547819553    -4.344906013
 H        3.914911614    16.786994012    -2.241021020
 H        3.939430369    16.502728305    -3.998734370
 H        2.262907768    -1.029509895     0.048726138
 H        2.260490842     0.550319715     0.873338239
 H        2.276088577     0.472078896    -0.909509989
 H       18.013071494    32.529912046    -0.311201590
 H       16.395113001    31.939837515    -0.767870806
 H       17.699809425    30.778478398    -0.400516959
 H       15.832926959    33.417635656     3.265971019
 C       17.083713960    34.614490977     1.958610921
 C       14.767636736    33.821591183     1.419923594
 H       19.044937867    32.161726251     2.470649228
 C       18.010187018    31.531904329     4.272978412
 C       18.863352900    29.996549525     2.491757358
 H        6.559380394    23.762104165     5.118591943
 C        5.608528396    24.530546833     3.324490459
 C        5.021686718    22.375664066     4.462352551
 H        7.540553338    20.398960423     4.557110397
 C        9.607581396    20.508065375     3.889576188
 C        8.664657695    21.715152212     5.867909972
 H       -5.372393202    13.778827201    -1.820197093
 C       -4.309629041    12.402834730    -3.126665629
 C       -6.356131002    11.843389455    -1.800881799
 H       -5.897449499    11.948468833     1.190442507
 C       -4.288603719    12.408337618     2.573472788
 C       -5.679080310    14.102692324     1.356987767
 H       -0.138484694    -1.938607322    -1.511419615
 C       -2.146020524    -1.111632591    -1.575208330
 C       -0.184746769    -0.232460681    -2.855827175
 H       -1.776814250    -0.918296680     1.442081978
 C       -0.178431068    -2.371472504     1.635454595
 C       -0.298660525    -0.181526938     2.848957195
 H       18.016507458    34.473236389     2.519699885
 H       16.655335949    35.564754625     2.309496127
 H       17.347647381    34.768511751     0.903916689
 H       13.973258145    33.075392000     1.564587731
 H       14.910869655    33.946258836     0.338400031
 H       14.364139185    34.774754712     1.790432404
 H       17.672815841    32.534130887     4.565899309
 H       18.937714415    31.345058574     4.833834129
 H       17.275894831    30.804892313     4.647641948
 H       19.158477106    29.842890718     1.445832785
 H       18.178084551    29.181984926     2.767240229
 H       19.772723763    29.849177962     3.091990699
 H        6.362679808    25.295640286     3.091545234
 H        4.818212890    25.042506994     3.892121164
 H        5.151112828    24.215446573     2.376742425
 H        5.323937436    21.549809079     5.119049744
 H        4.569110666    21.936555917     3.561591126
 H        4.211799271    22.903544419     4.986340207
 H        9.459363147    20.063079233     2.896336734
 H        9.929103980    19.690140895     4.549681687
 H       10.461784766    21.196964543     3.815332265
 H        7.788944702    22.123782402     6.387949398
 H        9.447422261    22.486963202     5.867758580
 H        9.042467026    20.898706564     6.500773205
 H       -3.393840745    12.998480339    -3.242510256
 H       -4.943237022    12.637947926    -3.993176634
 H       -4.027230223    11.345048365    -3.229646635
 H       -7.011524434    12.064594602    -0.948977741
 H       -6.156431500    10.762615817    -1.801289261
 H       -6.950818220    12.043219870    -2.704154158
 H       -3.849979087    11.401021080     2.605347208
 H       -4.968258161    12.473984831     3.434959336
 H       -3.480972775    13.128805217     2.762680484
 H       -6.316370840    14.349852948     0.498320621
 H       -4.926029240    14.898430619     1.451927870
 H       -6.319642394    14.177974861     2.247218102
 H       -2.527964708    -1.685075359    -0.721158584
 H       -2.437310545    -1.672523215    -2.475254486
 H       -2.696325558    -0.160919130    -1.616753398
 H        0.903474605    -0.129391166    -2.954227603
 H       -0.626903008     0.766452669    -2.981224299
 H       -0.516114649    -0.825636787    -3.720208126
 H       -0.457276107    -2.977102074     0.763551286
 H       -0.638949434    -2.858580586     2.507331317
 H        0.907327836    -2.461749855     1.772188640
 H       -0.655094930     0.858180927     2.876999096
 H        0.779994948    -0.166430507     3.054084514
 H       -0.768685257    -0.690354681     3.702572380

