187   

Si        0.000000000     0.000000000     0.000000000
 C        1.865067112     0.000000000     0.000000000
 C       -0.676266221     1.712391253     0.000000000
 C        0.094750175     2.787746979    -0.453448577
 C       -0.422940169     4.082822945    -0.451085054
 C       -1.722787857     4.331789176    -0.002736769
 C       -2.496209928     3.252568900     0.445176189
 C       -1.982163904     1.958775412     0.444284879
 C       -2.306854366     5.668756340     0.018222568
 C       -1.676869647     6.786438481    -0.381525061
 C       -2.263191078     8.122478950    -0.359587781
 C       -3.563713649     8.366524364     0.089737338
 C       -4.085721431     9.659934267     0.093957353
 C       -3.321543973    10.735275290    -0.367678197
 C       -2.017757476    10.493615644    -0.822499803
 C       -1.495589141     9.203539342    -0.813398971
Si       -3.978480801    12.452431164    -0.376086432
 C       -3.368116961    13.392465248    -1.823736243
 C       -3.070324559    12.810171304    -2.992735241
 C       -2.579922683    13.520332023    -4.175916457
 C       -2.310245857    12.772885713    -5.332395016
 C       -1.844184670    13.388404071    -6.483251102
 C       -1.637097474    14.778437752    -6.498522067
 C       -1.916775144    15.533357153    -5.354374383
 C       -2.397738659    14.905027011    -4.209109079
 N       -1.154172014    15.327826491    -7.730299826
 C        0.298194658    15.097412667    -7.908088356
 C       -1.548007054    16.726769125    -7.973654184
 C        1.200387014    15.937590262    -6.983419178
 C        2.361272975    15.137818057    -6.363391874
 N        2.033526563    14.375728058    -5.142723672
 C        1.408495435    15.070978109    -4.093350013
 C        1.636845607    16.453920665    -3.922939267
 C        1.023468448    17.144352005    -2.890376272
 C        0.214467086    16.485049895    -1.955286211
 C        0.023046055    15.108005356    -2.099220719
 C        0.615283150    14.404052917    -3.138650718
 C        1.548439687    13.011571993    -5.410349999
 C       -0.405270802    17.270208642    -0.888210166
 C       -1.197593350    16.761545876     0.064857900
Si       -1.962357833    17.761469729     1.390078367
 C       -0.938106413    19.219147982     1.841457246
 C        0.458943397    19.136771009     1.772808771
 C        1.247901331    20.232649298     2.111592854
 C        0.663238455    21.432094616     2.539372567
 C       -0.730193728    21.508476193     2.614593368
 C       -1.523425984    20.414165065     2.271243517
 C        1.531820458    22.553093978     2.883501449
 C        1.099725169    23.755085053     3.301087790
 C        1.967052472    24.876857333     3.645520009
 C        3.360323506    24.803609462     3.571353489
 C        4.151371252    25.901358733     3.910466307
 C        3.564191474    27.096106960     4.338432014
 C        2.166709957    27.171867439     4.414508626
 C        1.379878433    26.076583163     4.069846720
Si        4.594171775    28.553778721     4.789561632
 C        6.389844155    28.089688939     4.988935846
 C        4.450275407    29.875150954     3.426881757
 C        3.919113245    29.282677643     6.413342461
 C       -3.688764940    18.303323634     0.801367800
 C       -2.159053648    16.659943090     2.929130642
 C       -5.877262519    12.473506373    -0.390726742
 C       -3.352001171    13.324945618     1.194982042
 C       -0.626076907    -0.911053393    -1.549373033
 C       -0.648894859    -0.917520545     1.536951843
 H        1.118222896     2.655446469    -0.815066566
 H        0.199047691     4.902965445    -0.804914912
 H       -3.511533452     3.424310575     0.797736358
 H       -2.633299018     1.157033468     0.803679119
 H       -3.333173106     5.713154468     0.394711045
 H       -0.650644856     6.742975956    -0.757580359
 H       -4.181920418     7.544421026     0.445681244
 H       -5.106145601     9.788866223     0.464932765
 H       -1.374173168    11.298877717    -1.194422208
 H       -0.479793154     9.034577912    -1.165895588
 H       -3.278355555    14.480171663    -1.681205752
 H       -3.163586114    11.725976913    -3.155069582
 H       -2.471478174    11.694607051    -5.329916584
 H       -1.654206840    12.810614562    -7.385924069
 H       -1.758190187    16.608442676    -5.347688174
 H       -2.610205227    15.508092848    -3.324257803
 H       -1.313877984    16.975964475    -9.023168056
 H       -1.057579591    17.467001270    -7.323683127
 H       -2.641323433    16.820425887    -7.849334635
 H        2.069036789    12.582789899    -6.281063419
 H        0.459975413    12.963104426    -5.594384788
 H        1.789907012    12.368182883    -4.543991447
 H        2.293851231    16.989317026    -4.601207767
 H        1.191779651    18.218181841    -2.797035889
 H       -0.603284109    14.566345740    -1.387044623
 H        0.432689403    13.336171510    -3.216669993
 H       -0.148088555    18.338337955    -0.936477453
 H       -1.449240256    15.690048082     0.090932777
 H        0.970435762    18.223199071     1.450227811
 H        2.331418594    20.152416851     2.045385693
 H       -1.209905497    22.428065861     2.944305661
 H       -2.607183233    20.534940728     2.349723820
 H        2.601935612    22.351829437     2.778147903
 H        0.029521896    23.955706320     3.406652735
 H        3.842230710    23.883594739     3.245623083
 H        5.235662226    25.783894601     3.831436126
 H        1.652431159    28.079526852     4.742911578
 H        0.296255668    26.154942848     4.133902751
 H        0.487959278    14.011199536    -7.760470129
 H        0.534383023    15.309208922    -8.974411351
 H        1.608768165    16.799211549    -7.541998442
 H        0.587209510    16.383902970    -6.171906498
 H        2.794338313    14.440826784    -7.114072211
 H        3.191201922    15.836357990    -6.095060883
 H        2.262863641    -1.028966928     0.057900898
 H        2.259607808     0.558243260     0.868702479
 H        2.276494076     0.464484704    -0.913032337
 H        6.992998084    28.959313197     5.305717281
 H        6.821930193    27.711286589     4.046031395
 H        6.512930742    27.303671135     5.756085966
 H        5.144917300    30.708903091     3.735854981
 C        4.908973211    29.356017369     2.051780295
 C        3.034755228    30.462575556     3.284360974
 H        2.852230952    29.582242963     6.197861954
 C        3.896573883    28.252203274     7.556785353
 C        4.674902510    30.538025278     6.884072481
 H       -4.138996888    18.891470027     1.651806994
 C       -3.620867998    19.220118126    -0.433189107
 C       -4.625846439    17.121457392     0.492979822
 H       -2.732104508    15.747321278     2.590788894
 C       -0.801686539    16.193879200     3.485517949
 C       -2.958386388    17.331133548     4.058652298
 H       -6.204921706    11.924091487     0.538666547
 C       -6.467087165    13.894449850    -0.335415964
 C       -6.460891153    11.739008671    -1.610836400
 H       -3.591351401    14.418823852     1.052777749
 C       -4.048189959    12.849781865     2.481503300
 C       -1.830596455    13.175625759     1.371225705
 H       -0.152420254    -1.934470964    -1.516833838
 C       -2.154440768    -1.092467933    -1.573260918
 C       -0.189655191    -0.224270710    -2.856417374
 H       -1.773782576    -0.924551536     1.442717103
 C       -0.176342267    -2.379823440     1.623131516
 C       -0.290126806    -0.196870411     2.849136932
 H        5.944074446    28.991056386     2.045872208
 H        4.864803008    30.165696623     1.309316067
 H        4.269632474    28.549321471     1.665128419
 H        2.661340084    30.929301353     4.204603920
 H        2.294845964    29.717865187     2.958728526
 H        3.031373001    31.251425086     2.517984037
 H        3.325312505    27.345152964     7.312299133
 H        3.417472725    28.686030570     8.446058453
 H        4.900460249    27.936018248     7.869819206
 H        4.676537911    31.348079254     6.143354954
 H        5.718385436    30.332298643     7.157194289
 H        4.196724174    30.947565078     7.785830689
 H       -3.016203885    20.123423919    -0.273378583
 H       -4.627445362    19.569892341    -0.701071226
 H       -3.222589566    18.709985204    -1.322742406
 H       -4.788400130    16.460355166     1.354070230
 H       -4.273554334    16.505691271    -0.347151468
 H       -5.618400849    17.495492491     0.203410221
 H       -0.178002189    15.675983494     2.743547322
 H       -0.955006928    15.485586575     4.311859156
 H       -0.204407352    17.020297458     3.897728298
 H       -3.980540105    17.603497909     3.766658177
 H       -2.470432673    18.234757978     4.451146106
 H       -3.055537838    16.643228275     4.911088050
 H       -6.145712217    14.467275834     0.544359647
 H       -7.564114753    13.843782085    -0.284168445
 H       -6.230417405    14.488849972    -1.229436832
 H       -6.132061780    10.693871834    -1.692344297
 H       -6.221077848    12.234652525    -2.563043088
 H       -7.557774382    11.711318131    -1.546445484
 H       -5.133743786    13.009420453     2.475786960
 H       -3.660941130    13.407999278     3.346861469
 H       -3.868351555    11.787983126     2.700069721
 H       -1.248456785    13.525987257     0.507961248
 H       -1.525315323    12.138755199     1.573831131
 H       -1.489554526    13.766101735     2.235124796
 H       -2.538218821    -1.666475178    -0.720337306
 H       -2.452877760    -1.647417262    -2.474614812
 H       -2.697745859    -0.137442988    -1.608608509
 H        0.899053446    -0.127938977    -2.956351773
 H       -0.626011953     0.777563942    -2.978502855
 H       -0.526116770    -0.813145970    -3.721807053
 H       -0.458356314    -2.980361032     0.748700870
 H       -0.634752898    -2.871446479     2.493585823
 H        0.909738193    -2.472013548     1.756214796
 H       -0.642529754     0.843962972     2.883757774
 H        0.789152760    -0.186685622     3.051740251
 H       -0.759684646    -0.708704956     3.701219961

