187   

Si        0.000000000     0.000000000     0.000000000
 C        1.865208902     0.000000000     0.000000000
 C       -0.679214395     1.711051892     0.000000000
 C        0.129146145     2.809202773     0.310244997
 C       -0.396954001     4.100992566     0.306925107
 C       -1.741734390     4.323937161     0.000097823
 C       -2.551502944     3.222123162    -0.306614690
 C       -2.028938031     1.931922399    -0.306133819
 C       -2.335641363     5.656625823    -0.015819340
 C       -1.673005160     6.793630656     0.256182437
 C       -2.268100983     8.125862675     0.239930681
 C       -3.613543082     8.346276121    -0.067303463
 C       -4.141618883     9.636886244    -0.071220161
 C       -3.336051144    10.735007291     0.246701086
 C       -1.987114536    10.517299476     0.556878653
 C       -1.460332486     9.228668710     0.547970216
Si       -4.008641962    12.446317069     0.248578884
 C       -3.198934852    13.500985116     1.504300493
 C       -2.696929922    13.043413610     2.659105895
 C       -2.048707952    13.887944268     3.664322447
 C       -1.561906738    13.288484733     4.836880985
 C       -0.941168564    14.041833624     5.818224641
 C       -0.817363932    15.439574783     5.668579894
 C       -1.298837210    16.041320551     4.495348662
 C       -1.886741571    15.264931253     3.502085022
 N       -0.174934942    16.162245439     6.699996675
 C       -0.716919734    15.944804504     8.061565355
 C        0.141731169    17.571580094     6.416923942
 C       -2.236330942    15.729551180     8.155190532
 C       -3.047528533    16.919255216     7.611566646
 N       -4.447523692    16.573899352     7.306208914
 C       -5.252852977    16.147133484     8.376810323
 C       -5.030837500    16.653728579     9.675717478
 C       -5.820187895    16.238048775    10.735807998
 C       -6.885899836    15.347791783    10.543090408
 C       -7.125171406    14.873063264     9.250413684
 C       -6.334367470    15.266593928     8.179338143
 C       -4.591084942    15.842602584     6.034978332
 C       -7.688410750    14.940751412    11.697699189
 C       -8.726773812    14.097506217    11.629194053
Si       -9.762956943    13.554202151    13.032427891
 C      -11.540848231    13.767475059    12.610994667
 C      -11.924840294    14.655507770    11.600696217
 C      -13.271397184    14.820102935    11.278161166
 C      -14.261987003    14.111368644    11.963410088
 C      -13.874649609    13.227157008    12.979257925
 C      -12.530768183    13.056550919    13.301096374
 C      -15.682448858    14.251662455    11.660231959
 C      -16.186508503    15.061793823    10.713906311
 C      -17.606867486    15.202244307    10.410566104
 C      -18.597505573    14.490632912    11.092037775
 C      -19.944381880    14.655668522    10.769255630
 C      -20.330329604    15.542647782     9.759559763
 C      -19.338651621    16.258026322     9.074542943
 C      -17.994955561    16.086941135     9.395289405
Si      -22.103278617    15.772277878     9.321137902
 C      -23.230563163    15.002043347    10.592341669
 C      -22.445238021    17.639912757     9.184139798
 C      -22.449987286    14.967576640     7.631251838
 C       -9.408262445    11.714667601    13.367912722
 C       -9.372890451    14.548430441    14.605858317
 C       -3.717384703    13.219363443    -1.464621419
 C       -5.878455886    12.419848335     0.600001099
 C       -0.654549241    -0.904349496    -1.542120937
 C       -0.615863735    -0.922609296     1.546726665
 H        1.188251410     2.697580888     0.558516613
 H        0.254435590     4.939093042     0.548049364
 H       -3.601775701     3.373674069    -0.548394612
 H       -2.708806428     1.111945284    -0.554116262
 H       -3.398653546     5.680247772    -0.273279633
 H       -0.610010081     6.770574767     0.513501793
 H       -4.262832908     7.507223210    -0.310003695
 H       -5.199177751     9.746306102    -0.326257852
 H       -1.310222817    11.340279925     0.810555472
 H       -0.409079314     9.079043667     0.787369978
 H       -3.164215262    14.570970285     1.249198073
 H       -2.727074858    11.981087952     2.940884833
 H       -1.663796627    12.210739729     4.973896247
 H       -0.538080015    13.559153718     6.705640543
 H       -1.216394489    17.113064641     4.345572028
 H       -2.237687692    15.751354185     2.590936013
 H        0.822472874    17.948231410     7.201068204
 H       -0.734595238    18.236149683     6.366696864
 H        0.694143321    17.638263870     5.462141743
 H       -3.858244236    16.210769231     5.294740320
 H       -5.596099311    16.036624316     5.619284048
 H       -4.443671751    14.754135737     6.132960091
 H       -4.234856372    17.369888757     9.855670625
 H       -5.614545842    16.624622032    11.734400500
 H       -7.949407205    14.180514707     9.070658731
 H       -6.557759406    14.874836394     7.191849319
 H       -7.357200926    15.401355340    12.637500402
 H       -9.028717101    13.646853143    10.668744157
 H      -11.193387918    15.241024155    11.033521774
 H      -13.545596270    15.512469817    10.484276007
 H      -14.630666474    12.665731607    13.524453200
 H      -12.287610255    12.351911026    14.100898747
 H      -16.344211451    13.633066667    12.273419639
 H      -15.524603015    15.680571050    10.100775348
 H      -18.323978416    13.796799725    11.884810255
 H      -20.673302459    14.070705837    11.336823730
 H      -19.581087023    16.965693561     8.276696470
 H      -17.239126326    16.650192718     8.851133247
 H       -0.196626379    15.042147628     8.465740821
 H       -0.414772827    16.791604760     8.715219501
 H       -2.522374119    14.807148759     7.609287229
 H       -2.516758386    15.533359336     9.208704274
 H       -3.036698458    17.766044477     8.333014791
 H       -2.586483372    17.313634575     6.677051612
 H        2.262912609    -1.029655836    -0.045076362
 H        2.275350459     0.475202295     0.908265945
 H        2.260819782     0.546997445    -0.875133387
 H      -24.291843029    15.182176223    10.344396284
 H      -23.047263533    15.429213251    11.595028808
 H      -23.085690148    13.909563754    10.659283958
 H      -21.761304698    18.020355030     8.370509572
 C      -23.891897604    17.971074500     8.776521413
 C      -22.102660240    18.398099221    10.479417554
 H      -23.558427033    15.089201140     7.458521493
 C      -21.709541335    15.640486981     6.461649657
 C      -22.127130030    13.462070780     7.617771111
 H      -10.041928421    11.432319766    14.257667838
 C       -9.815242099    10.811982991    12.189615246
 C       -7.936601035    11.441587691    13.725037422
 H       -8.257745571    14.464523543    14.757067607
 C       -9.727811053    16.039587833    14.460405190
 C      -10.065885215    13.996904428    15.864759659
 H       -4.155789368    14.257723861    -1.418258777
 C       -2.220277642    13.346629451    -1.798843926
 C       -4.420052868    12.453623787    -2.598994719
 H       -6.343638455    11.806739567    -0.224900281
 C       -6.209624664    11.746278269     1.943881010
 C       -6.520779676    13.818262339     0.571835568
 H       -1.779338901    -0.905841678    -1.445849441
 C       -0.295272246    -0.175207122    -2.849476505
 C       -0.188749261    -2.367944596    -1.639790194
 H       -0.126562173    -1.938743897     1.510918038
 C       -0.188325208    -0.232595950     2.855131670
 C       -2.140919892    -1.128948936     1.573828678
 H      -24.187190576    17.522848201     7.819077287
 H      -24.007959380    19.057987831     8.655432250
 H      -24.629947087    17.666424111     9.530268925
 H      -21.062817964    18.252095603    10.805564463
 H      -22.754174792    18.126958336    11.320638292
 H      -22.227408167    19.479700541    10.327533909
 H      -21.946879351    16.705995851     6.350257573
 H      -21.994403730    15.162768665     5.512869990
 H      -20.617257334    15.543190126     6.536190288
 H      -22.682123343    12.889640897     8.372043981
 H      -21.057272774    13.253491528     7.762733714
 H      -22.395697617    13.027882613     6.644082914
 H      -10.870821297    10.920012845    11.902775341
 H       -9.677476061     9.755290936    12.459287784
 H       -9.207653874    10.982036611    11.290138864
 H       -7.595629610    11.987730012    14.613908164
 H       -7.246061692    11.679750013    12.903140438
 H       -7.794506438    10.374214925    13.946331141
 H       -9.244012394    16.525544802    13.601960372
 H       -9.404192782    16.593851106    15.352431359
 H      -10.809915681    16.211772219    14.366632026
 H       -9.786561644    12.961655203    16.097992726
 H      -11.162386388    14.045083850    15.805689871
 H       -9.781524952    14.595591258    16.742369365
 H       -1.656041257    13.933269187    -1.061151482
 H       -2.091356964    13.858075596    -2.763357357
 H       -1.721080070    12.371939650    -1.899957601
 H       -5.510058835    12.403586446    -2.481472654
 H       -4.048408582    11.425381834    -2.716374054
 H       -4.238258404    12.955260450    -3.560663844
 H       -5.834912986    10.715989142     2.020237202
 H       -7.298857861    11.687505851     2.078595915
 H       -5.820754057    12.303635153     2.808590242
 H       -6.394287733    14.336993578    -0.386958787
 H       -6.141945035    14.478795478     1.364347619
 H       -7.605457566    13.736043068     0.733530239
 H       -0.646436389     0.866329265    -2.876059624
 H       -0.766876607    -0.679808888    -3.704710439
 H        0.783689157    -0.165497433    -3.053174718
 H       -0.474669123    -2.974298012    -0.770638080
 H        0.897025961    -2.464149541    -1.772304947
 H       -0.648301855    -2.850127175    -2.514892347
 H        0.898888242    -0.119313427     2.954059938
 H       -0.514611718    -0.828893489     3.719331200
 H       -0.639535682     0.762264334     2.980352649
 H       -2.520233154    -1.691933051     0.711730268
 H       -2.698484345    -0.183441048     1.631804554
 H       -2.425618592    -1.706464034     2.465488554

