187   

Si        0.000000000     0.000000000     0.000000000
 C        1.865491394     0.000000000     0.000000000
 C       -0.681825203     1.709636266     0.000000000
 C        0.137040043     2.816433334     0.244542002
 C       -0.393825338     4.106377510     0.241356100
 C       -1.753735100     4.318722980     0.001024481
 C       -2.573619881     3.208225332    -0.241006297
 C       -2.046241752     1.920078237    -0.242374196
 C       -2.353494132     5.648747266    -0.012135033
 C       -1.682964456     6.793858397     0.200207706
 C       -2.284997596     8.123023545     0.186555126
 C       -3.645860545     8.330919303    -0.054290229
 C       -4.180345717     9.618889674    -0.058306487
 C       -3.365504670    10.727651528     0.192741975
 C       -2.000940597    10.522177886     0.435587193
 C       -1.468180693     9.235942651     0.426556128
Si       -4.050193052    12.435308080     0.192199733
 C       -3.157157609    13.540755448     1.341356360
 C       -2.558627728    13.137195509     2.470347092
 C       -1.845359881    14.029034114     3.385383361
 C       -1.257707855    13.489057507     4.538923658
 C       -0.571862068    14.289891326     5.436562537
 C       -0.407915296    15.670264408     5.182212489
 C       -0.996601222    16.212987640     4.023264450
 C       -1.718796482    15.401983603     3.157973938
 N        0.288763393    16.464326574     6.101689202
 C        1.443808075    15.869569577     6.792458559
 C        0.421153367    17.895599596     5.803183444
 C        2.479255245    15.176800303     5.886742287
 C        3.385730977    16.137977413     5.097782983
 N        4.343294269    16.936848030     5.889105788
 C        3.827157089    18.153750649     6.403146858
 C        3.410918537    19.121847560     5.466616275
 C        2.897032290    20.332667347     5.899451112
 C        2.815293427    20.633785170     7.268117572
 C        3.257259681    19.682803684     8.190258255
 C        3.769545735    18.459397404     7.770573858
 C        5.155911668    16.136606496     6.817442530
 C        2.263108355    21.929473137     7.668874112
 C        2.133330978    22.332252195     8.939938759
Si        1.442549158    23.952572936     9.434326310
 C        1.759951804    25.250186188     8.170624993
 C        2.929715870    25.203782836     7.403427583
 C        3.185199682    26.179639203     6.441529704
 C        2.286252814    27.229634171     6.233314116
 C        1.120233869    27.278785745     7.008429177
 C        0.859735349    26.302797560     7.967380719
 C        2.512333916    28.272713401     5.238259393
 C        3.585922256    28.341642403     4.432949814
 C        3.812833215    29.384270712     3.437677249
 C        2.913438193    30.432080553     3.225064877
 C        3.170404211    31.408105094     2.262248884
 C        4.331108477    31.351962218     1.484445063
 C        5.233965593    30.300708145     1.694813416
 C        4.977940848    29.331580762     2.660665672
Si        4.684834545    32.632213440     0.209708158
 C        3.183829563    33.682271863    -0.142969362
 C        6.091894563    33.761040308     0.816976966
 C        5.258144283    31.751577329    -1.377446315
 C       -0.428133654    23.749499512     9.714094968
 C        2.255188788    24.479285218    11.071018501
 C       -3.894500825    13.150726024    -1.564053281
 C       -5.890100252    12.402265190     0.676006728
 C       -0.656766773    -0.900348352    -1.543277675
 C       -0.607521178    -0.928430890     1.546733433
 H        1.207939731     2.713083345     0.439985375
 H        0.265697534     4.951300990     0.430838431
 H       -3.635595382     3.351637245    -0.431128938
 H       -2.734351673     1.093309691    -0.440289700
 H       -3.428690948     5.663212588    -0.213697587
 H       -0.607872128     6.780418785     0.401589857
 H       -4.302475664     7.484064107    -0.244112587
 H       -5.250510097     9.718208639    -0.259353091
 H       -1.316340210    11.353743481     0.634886485
 H       -0.405047617     9.096085995     0.612422119
 H       -3.158181092    14.600639638     1.044681816
 H       -2.552702828    12.087529334     2.796933443
 H       -1.353165692    12.421535785     4.742398938
 H       -0.164006525    13.851990352     6.342525148
 H       -0.896962981    17.268405128     3.792525184
 H       -2.178605992    15.850024518     2.275855028
 H        0.943280163    18.410408099     6.631232592
 H       -0.586100132    18.346373961     5.732912501
 H        0.974502251    18.105685477     4.873260417
 H        5.632722707    15.314987226     6.254344394
 H        4.595197271    15.702866829     7.659899181
 H        5.968018806    16.767236834     7.221891550
 H        3.506656978    18.913818964     4.402560555
 H        2.569824312    21.069368260     5.164246833
 H        3.207197305    19.895780383     9.258812620
 H        4.107707559    17.742563226     8.512585982
 H        1.966885444    22.555355488     6.814639950
 H        2.429145155    21.683965699     9.778691819
 H        3.673400107    24.408955011     7.526344906
 H        4.098500294    26.117534259     5.852439144
 H        0.407486283    28.088148141     6.862412137
 H       -0.066292679    26.393929770     8.541498757
 H        1.724407133    29.029392597     5.181469921
 H        4.374030825    27.584866996     4.490192812
 H        2.000110525    30.496093747     3.813680275
 H        2.430507709    32.204462684     2.143083775
 H        6.156920081    30.204807237     1.115838881
 H        5.691746534    28.523697520     2.810568913
 H        1.940509654    16.656544529     7.405098101
 H        1.042596479    15.127867449     7.525159611
 H        3.094553365    14.493810588     6.501465823
 H        1.955868521    14.519008790     5.160447812
 H        3.995279385    15.548038508     4.371214419
 H        2.757144005    16.822664932     4.485645496
 H        2.262716504    -1.030142612    -0.036521254
 H        2.275052324     0.482536103     0.904640622
 H        2.261629337     0.539519998    -0.879442045
 H        3.392500047    34.419151047    -0.939149626
 H        2.855906769    34.242015359     0.750350921
 H        2.335854790    33.059648946    -0.481529379
 H        6.217788697    34.547514024     0.017579243
 C        5.748745118    34.473492445     2.138079745
 C        7.438082544    33.033748489     0.984246240
 H        6.190262231    31.180675643    -1.095094275
 C        4.223093915    30.735675841    -1.893667735
 C        5.624854875    32.717605350    -2.517991349
 H       -0.802386714    24.751320044    10.073506732
 C       -1.175901064    23.395027636     8.416219095
 C       -0.770314684    22.701981142    10.788469812
 H        2.024498180    23.661159845    11.812767192
 C        3.785089306    24.597149726    10.949318287
 C        1.693749635    25.800000435    11.625553060
 H       -4.335318372    14.188129883    -1.518795838
 C       -2.427551383    13.273820746    -2.014049929
 C       -4.674793417    12.345120974    -2.617213916
 H       -6.406667469    11.764858212    -0.098203945
 C       -6.118611391    11.759986147     2.056016170
 C       -6.546466262    13.794335700     0.658415773
 H       -1.781690628    -0.895677707    -1.448321264
 C       -0.292228505    -0.172110969    -2.849702640
 C       -0.198456578    -2.366245757    -1.641296968
 H       -0.105424044    -1.938461078     1.511299598
 C       -0.188407337    -0.232885549     2.854980166
 C       -2.129526313    -1.155576718     1.575387482
 H        4.839536553    35.085645584     2.080728554
 H        6.562120973    35.157644962     2.419661230
 H        5.628019341    33.776524931     2.979936645
 H        7.802099131    32.572514758     0.057488851
 H        7.409982836    32.256295987     1.760674611
 H        8.214195836    33.748087721     1.295997111
 H        3.952752693    29.974567461    -1.147731764
 H        4.629300459    30.188717290    -2.756458599
 H        3.292714229    31.207058678    -2.237041762
 H        6.413632454    33.431241821    -2.246877121
 H        4.764741132    33.293054936    -2.885149743
 H        6.006023897    32.151878192    -3.380680113
 H       -1.028948658    24.129668368     7.612343091
 H       -2.258439610    23.356057221     8.602789702
 H       -0.895986234    22.408952514     8.017586016
 H       -0.333121775    22.924565237    11.770130821
 H       -0.464044437    21.684721887    10.506791954
 H       -1.858865602    22.662514688    10.940463418
 H        4.269455673    23.669708101    10.614837165
 H        4.223844200    24.838469525    11.927993843
 H        4.098805199    25.400313828    10.266706690
 H        0.616432650    25.763542791    11.831701599
 H        1.878924005    26.656649393    10.961488356
 H        2.180518299    26.043979162    12.581126256
 H       -1.814391222    13.887019836    -1.339488769
 H       -2.374670991    13.753942246    -3.001353169
 H       -1.930456898    12.298774357    -2.119973288
 H       -5.752716309    12.295837867    -2.417234280
 H       -4.307110660    11.314787014    -2.727244808
 H       -4.567526512    12.814701083    -3.605752680
 H       -5.730873032    10.734515620     2.130316665
 H       -7.194565131    11.698966905     2.271158657
 H       -5.672401466    12.341245246     2.876358828
 H       -6.493148384    14.289428007    -0.319404980
 H       -6.117648064    14.477800966     1.404986338
 H       -7.615623185    13.708319917     0.900328216
 H       -0.639235451     0.870862758    -2.876164535
 H       -0.764812606    -0.674223453    -3.705866654
 H        0.787015902    -0.166819041    -3.051785439
 H       -0.488282774    -2.971602070    -0.772751798
 H        0.886944225    -2.467891658    -1.772758502
 H       -0.659618146    -2.845555715    -2.517133184
 H        0.897261478    -0.105155118     2.953301142
 H       -0.506431013    -0.833215709     3.719398809
 H       -0.652340270     0.756147830     2.980058604
 H       -2.502041566    -1.722102672     0.712653325
 H       -2.699891149    -0.218056694     1.636387062
 H       -2.404985345    -1.738610413     2.466379460

