187   

Si        0.000000000     0.000000000     0.000000000
 C        1.865559783     0.000000000     0.000000000
 C       -0.681723164     1.708836337     0.000000000
 C        0.125143482     2.809394809    -0.304985791
 C       -0.404868301     4.099299696    -0.301211878
 C       -1.753679353     4.316162121    -0.007053917
 C       -2.562162897     3.212062600     0.293453121
 C       -2.033844935     1.924271202     0.299277647
 C       -2.349349873     5.647341336     0.008188204
 C       -1.675887416     6.779753575    -0.253841409
 C       -2.258457480     8.116058795    -0.242127600
 C       -3.604228274     8.354178490     0.049348932
 C       -4.112070325     9.652002645     0.047222041
 C       -3.269916564    10.748404230    -0.180411915
 C       -1.920142486    10.509157576    -0.458025271
 C       -1.425343263     9.209216168    -0.506828488
Si       -3.984906012    12.445261283    -0.174131258
 C       -2.780997224    13.812003128    -0.372063538
 C       -1.624822198    13.758477032    -1.045147271
 C       -0.686507137    14.872391127    -1.182199192
 C        0.488763098    14.665109679    -1.920449633
 C        1.415624332    15.678000754    -2.086739374
 C        1.155533084    16.975515613    -1.598941129
 C       -0.031332126    17.190065338    -0.874591173
 C       -0.918456928    16.142142526    -0.651130245
 N        2.118913501    17.984400458    -1.784030348
 C        2.838673108    18.015171786    -3.069173681
 C        1.785783897    19.326590349    -1.280694389
 C        2.001205992    18.479584749    -4.276934569
 C        1.454163970    17.328260534    -5.143478918
 N        2.443207778    16.546730700    -5.915691693
 C        2.971335177    15.423138376    -5.220130269
 C        2.077575220    14.366393168    -4.956759723
 C        2.516158767    13.237979048    -4.284017845
 C        3.859082806    13.107671088    -3.894966172
 C        4.746475802    14.145051293    -4.187087254
 C        4.316241362    15.290301787    -4.851162974
 C        3.427853367    17.370599453    -6.632618786
 C        4.263570798    11.891658966    -3.186418222
 C        5.508642664    11.640221102    -2.760071162
Si        5.979262416    10.106207721    -1.875782242
 C        4.551648010     9.464803658    -0.909715313
 C        3.659574291    10.381360573    -0.339020082
 C        2.566247374     9.937117901     0.399658822
 C        2.356488687     8.571352343     0.615460600
 C        3.257363754     7.656998649     0.056327861
 C        4.341918222     8.097619306    -0.700399694
 C        1.220570646     8.075299974     1.384911307
 C        0.304875016     8.874536577     1.958328800
 C       -0.842942742     8.422059703     2.733934277
 C       -1.117184493     7.073186398     2.967731331
 C       -2.230870973     6.694801928     3.717903997
 C       -3.111046178     7.660502617     4.214123437
 C       -2.844328151     9.014920356     3.970039780
 C       -1.719218996     9.389775828     3.244166598
Si       -4.588545804     7.197972080     5.206342478
 C       -4.919568038     5.364503034     5.120093947
 C       -4.340346984     7.703292309     7.022589320
 C       -6.059394990     8.176968887     4.491325705
 C        6.566819905     8.809954988    -3.135465591
 C        7.406699400    10.506051668    -0.685877265
 C       -5.267312463    12.525176640    -1.575882503
 C       -4.847554588    12.769929153     1.496511106
 C       -0.612875924    -0.925682692    -1.546088052
 C       -0.654662467    -0.900779528     1.544338432
 H        1.185652678     2.700483319    -0.547564574
 H        0.245552033     4.940143120    -0.537264252
 H       -3.614606017     3.360367069     0.527607610
 H       -2.710905437     1.101690281     0.545296765
 H       -3.413287379     5.675031826     0.257933094
 H       -0.608749409     6.751786111    -0.498586861
 H       -4.269469117     7.521539657     0.270239900
 H       -5.181322737     9.770179185     0.244312176
 H       -1.204663942    11.319313271    -0.628896522
 H       -0.373160461     9.044669755    -0.741447530
 H       -3.093531515    14.742645737     0.128654525
 H       -1.290425730    12.856362051    -1.579649738
 H        0.697079564    13.680189281    -2.343363144
 H        2.353365185    15.464654971    -2.598995026
 H       -0.269924151    18.169652497    -0.475323784
 H       -1.818655487    16.330035866    -0.065340797
 H        2.642132893    20.004710001    -1.434076788
 H        1.614101075    19.270274761    -0.189879281
 H        0.898962305    19.773631980    -1.757546150
 H        2.888867177    18.099084030    -7.262934999
 H        4.011107938    16.721742371    -7.310592348
 H        4.128788529    17.919195624    -5.984995935
 H        1.041406344    14.448678337    -5.282228254
 H        1.813059643    12.429839649    -4.076484202
 H        5.793502683    14.065207374    -3.894516225
 H        5.029100051    16.080374080    -5.065942057
 H        3.430116785    11.191080939    -3.026567544
 H        6.331159865    12.348324315    -2.936866124
 H        3.781037548    11.464563227    -0.457984386
 H        1.878986284    10.671582602     0.818927706
 H        3.112650986     6.589784306     0.212478932
 H        5.009882473     7.339725585    -1.116931965
 H        1.158057422     6.988892688     1.479697369
 H        0.380799622     9.964049921     1.861750211
 H       -0.460114945     6.302679071     2.567274213
 H       -2.388731968     5.625286487     3.880237221
 H       -3.501901313     9.810923283     4.330675587
 H       -1.524570943    10.445656726     3.059840006
 H        3.717439635    18.688628293    -2.938616956
 H        3.274373054    17.006626214    -3.257692070
 H        1.142833458    19.086161292    -3.926565927
 H        2.601729263    19.166574224    -4.900482729
 H        0.861876506    16.634092674    -4.501808241
 H        0.739084542    17.746527203    -5.891701064
 H        2.263146910    -1.029405591     0.050547894
 H        2.261187787     0.551869863     0.871909780
 H        2.274983337     0.470301077    -0.911046299
 H       -5.835510956     5.097415761     5.675502270
 H       -4.087383444     4.779617115     5.550159008
 H       -5.056287588     5.035572222     4.073706454
 H       -5.263529266     7.349853345     7.566260422
 C       -3.118154274     7.018146479     7.661476739
 C       -4.218002862     9.223401089     7.233044176
 H       -5.828521455     9.264621540     4.687523744
 C       -6.203107403     7.996625776     2.968743376
 C       -7.402701075     7.851650323     5.166794187
 H        6.875910641     7.907562401    -2.532447939
 C        5.444965130     8.381054474    -4.098337700
 C        7.782793011     9.269373907    -3.959581278
 H        8.250220404    10.892636328    -1.327557486
 C        7.031568360    11.605055344     0.324579820
 C        7.915181771     9.273139687     0.081403853
 H       -6.019979497    11.714274019    -1.353382892
 C       -6.015444304    13.867818239    -1.642213631
 C       -4.642273730    12.228730669    -2.950849896
 H       -5.190546041    13.843826576     1.448065132
 C       -6.082583202    11.896402402     1.773941525
 C       -3.870377280    12.629359584     2.678180761
 H       -0.117646210    -1.938907564    -1.511509613
 C       -2.136727114    -1.140895928    -1.571747666
 C       -0.191057824    -0.231992376    -2.854421125
 H       -1.778505365    -0.917265553     1.439350418
 C       -0.171215316    -2.357437090     1.657745104
 C       -0.315125769    -0.155760949     2.848223001
 H       -3.166097317     5.922069940     7.630512448
 H       -3.044083995     7.292338778     8.723451427
 H       -2.168226433     7.322588121     7.198265086
 H       -5.089773373     9.785000758     6.874695921
 H       -3.321947424     9.648005660     6.757985413
 H       -4.129844694     9.447503983     8.305966085
 H       -5.297475699     8.289526576     2.414440400
 H       -7.017701459     8.629140477     2.589416028
 H       -6.450308628     6.966857549     2.679821508
 H       -7.396201399     8.019794342     6.251367023
 H       -7.730278600     6.818468944     4.992041059
 H       -8.194519251     8.497589056     4.760880023
 H        4.556335012     7.986156889    -3.586660800
 H        5.800993957     7.578909584    -4.759996669
 H        5.110964766     9.197213542    -4.755360191
 H        8.655848651     9.523012420    -3.344898593
 H        7.561650912    10.133191674    -4.601938250
 H        8.106358192     8.462181137    -4.632662237
 H        6.708267513    12.542361015    -0.148619521
 H        7.901474733    11.857823434     0.947261607
 H        6.237742943    11.293614483     1.019200156
 H        8.289651646     8.475829067    -0.573057333
 H        7.152091258     8.834353333     0.740387641
 H        8.755171348     9.555424198     0.732736793
 H       -6.550121841    14.114926747    -0.716303320
 H       -6.775476080    13.835415621    -2.436140135
 H       -5.355397918    14.712512672    -1.884386551
 H       -4.150695078    11.246587401    -3.000729442
 H       -3.906845249    12.984934936    -3.259961718
 H       -5.421542112    12.220483247    -3.725788321
 H       -6.827205694    11.919074039     0.969219581
 H       -6.597375747    12.253461112     2.677650130
 H       -5.823999574    10.845015714     1.968172739
 H       -2.986301269    13.276184589     2.593395175
 H       -3.514043153    11.596516577     2.811097656
 H       -4.369164498    12.909594857     3.616279662
 H       -2.511248973    -1.709442887    -0.711225860
 H       -2.419256016    -1.716446666    -2.465337198
 H       -2.699905710    -0.198440587    -1.625125031
 H        0.895239428    -0.111279223    -2.954207373
 H       -0.648909999     0.760088213    -2.978160529
 H       -0.514236014    -0.829554112    -3.718856339
 H       -0.436775644    -2.972556569     0.788295630
 H       -0.636550275    -2.840403177     2.529307942
 H        0.913874164    -2.437929810     1.805656783
 H       -0.681482589     0.880833711     2.863433643
 H        0.762167642    -0.128612303     3.059046358
 H       -0.785269020    -0.660445046     3.704165848

