187   

Si        0.000000000     0.000000000     0.000000000
 C        1.864964247     0.000000000     0.000000000
 C       -0.683506336     1.708104396     0.000000000
 C        0.148923161     2.828369235     0.083031263
 C       -0.389952302     4.115623527     0.081489918
 C       -1.771345366     4.307109461     0.015561578
 C       -2.604532858     3.182633540    -0.062837406
 C       -2.070318232     1.898879827    -0.075032687
 C       -2.392491252     5.625273736     0.010482720
 C       -1.740239290     6.798926277     0.066816151
 C       -2.410618929     8.095361410     0.058818232
 C       -3.802598786     8.205041186    -0.009275756
 C       -4.419195444     9.454145495    -0.015501902
 C       -3.654844137    10.621600840     0.074308454
 C       -2.259581704    10.516427813     0.144836862
 C       -1.645351072     9.266306879     0.125599397
Si       -4.461406758    12.271689598     0.066652285
 C       -3.612294197    13.484657277     1.135258962
 C       -2.927002902    13.194900270     2.249132949
 C       -2.262569893    14.207221372     3.072801400
 C       -1.567927612    13.807584456     4.222867298
 C       -0.926106689    14.735178462     5.028468334
 C       -0.891729355    16.096844645     4.662454232
 C       -1.572375920    16.496059435     3.499193265
 C       -2.260401115    15.562980480     2.734191980
 N       -0.230933655    17.022623836     5.500990459
 C        1.061656887    16.583678238     6.061791723
 C       -0.190490331    18.419754515     5.035047449
 C        2.126863563    16.250645263     4.999376534
 C        2.501452842    14.757554691     5.046237945
 N        3.406961898    14.339909195     3.963867096
 C        2.858711785    14.314816632     2.660810054
 C        1.608627667    13.694395288     2.457459306
 C        1.042674174    13.651878109     1.193974388
 C        1.710034269    14.195609949     0.085578815
 C        2.958186444    14.788124531     0.286644816
 C        3.535863054    14.843958754     1.549897459
 C        4.758326252    14.906694815     4.102500619
 C        1.076053225    14.129509240    -1.232535985
 C        1.628490949    14.617940226    -2.351839787
Si        0.861527157    14.550222165    -4.010911979
 C       -0.212470801    13.063373922    -4.156687085
 C        0.164414133    11.906001565    -3.462377878
 C       -0.610063188    10.751862259    -3.536109978
 C       -1.765228289    10.714768286    -4.323583355
 C       -2.132382239    11.867597020    -5.028668331
 C       -1.364388597    13.029311657    -4.949161260
 C       -2.595398234     9.517996701    -4.418852300
 C       -2.321362987     8.368742355    -3.778768374
 C       -3.118631729     7.150385321    -3.843061344
 C       -4.287973934     7.040322612    -4.598247141
 C       -5.009629198     5.845963092    -4.620360229
 C       -4.564944738     4.731512404    -3.902344019
 C       -3.382010148     4.834918202    -3.158435134
 C       -2.666334192     6.027178916    -3.137759910
Si       -5.492494055     3.142592351    -3.910286268
 C       -7.167749399     3.320799542    -4.708521545
 C       -4.490017209     1.825412716    -4.850573820
 C       -5.663963396     2.564765029    -2.103820582
 C       -0.103271446    16.155058873    -4.337768204
 C        2.250583132    14.409074033    -5.304714974
 C       -4.428650171    12.936067331    -1.712185618
 C       -6.274247023    12.131184985     0.626768797
 C       -0.664762727    -0.867898057    -1.559088314
 C       -0.601422733    -0.947440055     1.536822094
 H        1.236436887     2.737833568     0.146053644
 H        0.278533534     4.972087171     0.138894489
 H       -3.686062184     3.315745691    -0.103410429
 H       -2.769235925     1.060438995    -0.146384115
 H       -3.487028580     5.606333772    -0.051603994
 H       -0.650512587     6.837235147     0.127908176
 H       -4.421105559     7.311211271    -0.073789332
 H       -5.509899533     9.473966134    -0.091150147
 H       -1.615391957    11.399757662     0.209131519
 H       -0.559963171     9.202357676     0.171825998
 H       -3.727310930    14.527542588     0.796225062
 H       -2.799386438    12.170898511     2.623167662
 H       -1.551815646    12.754057589     4.504952143
 H       -0.451730944    14.407497822     5.949157153
 H       -1.567994104    17.532417208     3.177516859
 H       -2.788629124    15.902775086     1.841737116
 H        0.283025849    19.051709242     5.805264188
 H       -1.223632043    18.791637272     4.911240508
 H        0.356633751    18.557182182     4.088360119
 H        5.108952875    14.765398368     5.139058942
 H        4.822224835    15.978429144     3.856653837
 H        5.453993552    14.348465373     3.450096669
 H        1.075369422    13.255046621     3.298598171
 H        0.061455860    13.189055084     1.064527429
 H        3.499093566    15.219134560    -0.556613680
 H        4.503845699    15.320484239     1.662002680
 H        0.093049573    13.635577505    -1.217635514
 H        2.607985532    15.119560090    -2.330705030
 H        1.064206685    11.868025375    -2.837362524
 H       -0.304888095     9.871722847    -2.971485407
 H       -3.026646517    11.859767382    -5.647865589
 H       -1.698122398    13.897916224    -5.521398772
 H       -3.474431001     9.609734588    -5.059824257
 H       -1.439116886     8.293657986    -3.132055114
 H       -4.651387285     7.892466153    -5.168480792
 H       -5.923256714     5.821181828    -5.219013705
 H       -2.979821968     3.997369870    -2.577347848
 H       -1.745690495     6.086677136    -2.556665251
 H        1.433018767    17.384690919     6.739860782
 H        0.868613450    15.711368306     6.726623491
 H        1.754496580    16.501612512     3.985400383
 H        3.024191116    16.875865183     5.143063591
 H        2.989312313    14.510025900     6.015751943
 H        1.579661156    14.131304006     4.994598222
 H        2.262894688    -1.030129621    -0.028605590
 H        2.272274572     0.488966598     0.902483017
 H        2.263791321     0.532914409    -0.882032029
 H       -7.728134306     2.369714249    -4.678680310
 H       -7.084704350     3.623988172    -5.767024175
 H       -7.777322065     4.080936909    -4.187597795
 H       -5.140280795     0.903802190    -4.866802541
 C       -4.203978008     2.233602168    -6.307402056
 C       -3.158410680     1.456854467    -4.172584204
 H       -4.607774246     2.375310263    -1.747598528
 C       -6.287203500     3.638119116    -1.193669185
 C       -6.450603422     1.251919441    -1.947348683
 H       -0.562626060    16.038994569    -5.361884034
 C       -1.240252724    16.385913665    -3.327271392
 C        0.797769533    17.403806068    -4.361387525
 H        2.893193096    15.326846423    -5.175022799
 C        3.136363595    13.170680253    -5.078871132
 C        1.726177089    14.391631539    -6.751021320
 H       -5.108652052    13.835263750    -1.729022152
 C       -3.019559426    13.389956737    -2.121741849
 C       -4.948532624    11.921124700    -2.744587765
 H       -6.774313846    11.433776938    -0.105630339
 C       -6.407583461    11.525348303     2.035611722
 C       -7.027817822    13.473044928     0.591083265
 H       -1.790293671    -0.818773104    -1.482801558
 C       -0.248794985    -0.147921268    -2.854684827
 C       -0.261300314    -2.349276931    -1.657080531
 H       -0.059690379    -1.937359056     1.508595819
 C       -0.225687714    -0.235334153     2.849379015
 C       -2.113096002    -1.236626963     1.549770163
 H       -5.110706576     2.438625261    -6.890399876
 H       -3.679948178     1.421304676    -6.830863796
 H       -3.554090672     3.117748856    -6.382378333
 H       -3.278446987     1.068916436    -3.152501656
 H       -2.452905864     2.299456921    -4.130475175
 H       -2.653811255     0.664203851    -4.743765435
 H       -5.740893139     4.592528859    -1.211484527
 H       -6.287260034     3.296029439    -0.149017125
 H       -7.333636855     3.856293186    -1.444524600
 H       -6.019387481     0.416843399    -2.514551264
 H       -7.503624153     1.345417908    -2.242652124
 H       -6.455039260     0.939322238    -0.893032904
 H       -1.991152229    15.583665550    -3.331014703
 H       -1.779746396    17.312005457    -3.569256235
 H       -0.879377101    16.499594612    -2.294451261
 H        1.585738791    17.359450531    -5.123870889
 H        1.277472653    17.602749108    -3.392928997
 H        0.197915234    18.295201338    -4.594870173
 H        3.598405958    13.140850736    -4.082650902
 H        3.962962634    13.160861484    -5.803170606
 H        2.592700413    12.225375530    -5.221060093
 H        1.160070632    15.292283432    -7.020409619
 H        1.090640394    13.520190640    -6.964974569
 H        2.567971971    14.335908503    -7.456271337
 H       -2.589450371    14.156003955    -1.463224348
 H       -3.048927118    13.823162721    -3.133218011
 H       -2.300208519    12.556327952    -2.179730827
 H       -5.970102800    11.575182831    -2.547400615
 H       -4.304312086    11.030444337    -2.825774645
 H       -4.961741371    12.376689922    -3.744891455
 H       -5.941226578    10.535289189     2.132918082
 H       -7.468071255    11.392596580     2.291365245
 H       -5.979828349    12.168764618     2.818140628
 H       -7.052493067    13.933271857    -0.404739467
 H       -6.617353713    14.212314718     1.293023526
 H       -8.076898785    13.322171253     0.883775529
 H       -0.556171109     0.908024337    -2.882214039
 H       -0.722238453    -0.629962191    -3.722045277
 H        0.833302559    -0.182465068    -3.036934441
 H       -0.594082974    -2.948779733    -0.799956009
 H        0.822120574    -2.492692393    -1.763629245
 H       -0.719542956    -2.805117251    -2.546939449
 H        0.853184791    -0.066684553     2.961838716
 H       -0.532463077    -0.845908748     3.710721101
 H       -0.726998563     0.736213456     2.966768291
 H       -2.461812115    -1.782661248     0.664200325
 H       -2.719998813    -0.326026736     1.648814002
 H       -2.365471517    -1.865989207     2.415855245

