187   

Si        0.000000000     0.000000000     0.000000000
 C        1.865438470     0.000000000     0.000000000
 C       -0.661188318     1.718624882     0.000000000
 C        0.103772026     2.769013761    -0.518721660
 C       -0.390627130     4.072624361    -0.521883121
 C       -1.661458657     4.356597759    -0.014204020
 C       -2.429017412     3.302653544     0.498525031
 C       -1.937954604     1.999463966     0.503070918
 C       -2.216580853     5.706253293     0.001430533
 C       -1.580170497     6.796197008    -0.460035442
 C       -2.125305579     8.149347409    -0.449353714
 C       -3.393477580     8.449739601     0.054401608
 C       -3.872753174     9.759759810     0.043552133
 C       -3.098893731    10.795106769    -0.488991683
 C       -1.827750738    10.496015440    -0.998730524
 C       -1.346947301     9.190220931    -0.973837492
Si       -3.691007291    12.537042984    -0.523956192
 C       -3.149961038    13.387843157    -2.049735751
 C       -2.953412932    12.762604664    -3.218520863
 C       -2.520934894    13.426411736    -4.448832265
 C       -2.352096061    12.653635369    -5.607854686
 C       -1.944781511    13.229539727    -6.798992855
 C       -1.641458016    14.607388310    -6.859099818
 C       -1.808648286    15.382854968    -5.697782700
 C       -2.262827481    14.797024239    -4.521967773
 N       -1.229628897    15.164397032    -8.085467777
 C       -0.298093139    14.351089843    -8.889289711
 C       -0.889283798    16.596286785    -8.089085053
 C        0.973148271    13.925564844    -8.125301421
 C        2.159782362    13.680895735    -9.075394069
 N        3.112837891    14.811745946    -9.171146229
 C        2.498228913    16.036798600    -9.551568390
 C        1.905118502    16.093159076   -10.828722705
 C        1.290460760    17.257064155   -11.258680393
 C        1.280712427    18.407524970   -10.453881139
 C        1.892350742    18.353511741    -9.200124757
 C        2.501714573    17.186532464    -8.749673474
 C        4.011321047    14.885661424    -8.005116129
 C        0.616047438    19.610330447   -10.958821131
 C        0.539821532    20.766665830   -10.286565035
Si       -0.295725805    22.259696536   -10.934952949
 C       -1.681116092    21.800617497   -12.054115614
 C       -2.456117224    20.673365926   -11.754446096
 C       -3.512458216    20.299843099   -12.582818951
 C       -3.825551902    21.047593285   -13.721846079
 C       -3.053343158    22.178828929   -14.015309283
 C       -1.994511702    22.553565409   -13.190999254
 C       -4.922151483    20.693619612   -14.616953024
 C       -5.735121245    19.636893462   -14.448584075
 C       -6.832179415    19.281134996   -15.342350989
 C       -7.146585199    20.023879468   -16.483241030
 C       -8.204704021    19.647298440   -17.310248569
 C       -8.968694430    18.513577133   -17.016242885
 C       -8.655136385    17.766584059   -15.872574593
 C       -7.602026453    18.148220978   -15.046019644
Si      -10.368237964    18.003937872   -18.098163181
 C      -10.318683369    18.881411220   -19.743478421
 C      -10.271904966    16.120122539   -18.354703848
 C      -12.014754529    18.411784309   -17.234590955
 C       -0.991440469    23.245266772    -9.464810859
 C        0.978082044    23.334756408   -11.849266799
 C       -5.589459121    12.598672176    -0.421257094
 C       -2.968810265    13.461676983     0.973391710
 C       -0.632160449    -0.904403473    -1.550384133
 C       -0.651967391    -0.918146125     1.534917166
 H        1.104882879     2.610091290    -0.929220317
 H        0.226903324     4.872146959    -0.927224877
 H       -3.421894466     3.501251824     0.897631902
 H       -2.583371805     1.218386983     0.914054726
 H       -3.220844582     5.784869841     0.427058079
 H       -0.575194326     6.713422908    -0.885155121
 H       -4.018792901     7.659504082     0.465145766
 H       -4.868548852     9.934440026     0.459670308
 H       -1.179416374    11.267251066    -1.428878049
 H       -0.356139806     8.977420950    -1.370569870
 H       -3.010016411    14.474087961    -1.950285442
 H       -3.096041680    11.678903046    -3.341834427
 H       -2.557513150    11.582798978    -5.575729082
 H       -1.860213023    12.615257144    -7.690963788
 H       -1.588720447    16.445537260    -5.703306380
 H       -2.400125941    15.423127523    -3.639449475
 H       -0.660758070    16.920990863    -9.122103723
 H       -0.020427140    16.848733777    -7.460240228
 H       -1.764100921    17.182209290    -7.756226165
 H        4.578927691    13.940600712    -7.938501687
 H        3.499339151    15.051271137    -7.044523715
 H        4.749352893    15.691991568    -8.161008958
 H        1.942610632    15.219859964   -11.476736488
 H        0.822439398    17.283638133   -12.243787012
 H        1.901152539    19.235907784    -8.559029933
 H        2.963034512    17.176036920    -7.766651610
 H        0.170242536    19.471456037   -11.954592331
 H        1.002773180    20.887358431    -9.295934325
 H       -2.259952728    20.050299912   -10.874715034
 H       -4.096632975    19.416016499   -12.331769800
 H       -3.280809480    22.774882081   -14.896986791
 H       -1.428494714    23.446226124   -13.470259303
 H       -5.051752325    21.365379228   -15.470391678
 H       -5.605340494    18.965257948   -13.594498378
 H       -6.564882942    20.908273491   -16.736644029
 H       -8.402893821    20.268200147   -18.188291053
 H       -9.217409142    16.871124699   -15.592845183
 H       -7.374953185    17.556349567   -14.161124719
 H       -0.846887640    13.454251787    -9.255267626
 H       -0.030743901    14.932357786    -9.801978268
 H        1.236766134    14.698540782    -7.377637454
 H        0.762524609    13.017735177    -7.530083837
 H        2.730042911    12.781370046    -8.752576480
 H        1.802205550    13.453561368   -10.104658917
 H        2.263938785    -1.028109520     0.066476540
 H        2.258914189     0.565705745     0.864365282
 H        2.277133668     0.457294906    -0.916418727
 H      -11.135826792    18.537559411   -20.402523876
 H       -9.365574249    18.686187301   -20.267782814
 H      -10.422497940    19.974496970   -19.628255238
 H      -10.359862843    15.663001423   -17.326197903
 C      -11.415288461    15.558820352   -19.218446122
 C       -8.925627963    15.674865789   -18.953895640
 H      -12.822703375    18.126380396   -17.968715830
 C      -12.245227568    17.614101269   -15.938658606
 C      -12.161578819    19.912433513   -16.922726290
 H       -0.104969261    23.513105242    -8.820432989
 C       -1.685883324    24.550568848    -9.889816219
 C       -1.967300891    22.413133208    -8.613436989
 H        0.417488810    24.246240397   -12.207520830
 C        2.130158187    23.811419550   -10.946664919
 C        1.570239795    22.621485926   -13.078000346
 H       -5.867739443    12.082618934     0.542599207
 C       -6.147626554    14.032279490    -0.369715136
 C       -6.262471478    11.844489016    -1.582095880
 H       -3.362527823    14.516849898     0.907412922
 C       -3.413576686    12.868286785     2.321466743
 C       -1.431104468    13.522741678     0.936765338
 H       -0.171328337    -1.933584452    -1.516398908
 C       -2.162730107    -1.066315471    -1.576664584
 C       -0.184562632    -0.223980093    -2.856987595
 H       -1.777156686    -0.914977172     1.443838640
 C       -0.192339584    -2.385106096     1.613270494
 C       -0.282512734    -0.206921030     2.849311100
 H      -12.412745220    15.778325531   -18.816182779
 H      -11.340813654    14.462880141   -19.272939425
 H      -11.385825087    15.919671377   -20.255112532
 H       -8.058549774    15.994628664   -18.358238611
 H       -8.772389632    16.034402470   -19.980038860
 H       -8.878027885    14.577521843   -19.000337805
 H      -12.241791512    16.527129270   -16.089004877
 H      -13.230183414    17.861283656   -15.516159868
 H      -11.509854982    17.849450855   -15.156232154
 H      -12.091923208    20.551980353   -17.811974548
 H      -11.419709848    20.271972348   -16.195062841
 H      -13.147997372    20.110181047   -16.479093372
 H       -1.024228732    25.241846867   -10.427358822
 H       -2.041481116    25.094166142    -9.002386616
 H       -2.571950934    24.379488418   -10.518099637
 H       -1.526590798    21.485255024    -8.224278226
 H       -2.884761465    22.143977314    -9.156862901
 H       -2.290557787    22.992649379    -7.736964526
 H        1.793905442    24.404139728   -10.086454919
 H        2.810115870    24.460281191   -11.517864130
 H        2.745363427    22.984411933   -10.565552548
 H        0.812086030    22.295555938   -13.803450592
 H        2.170686814    21.739455900   -12.811278857
 H        2.243711519    23.299847052   -13.620625004
 H       -5.774688263    14.615451029     0.481761371
 H       -7.242034648    14.005454475    -0.266436004
 H       -5.940602585    14.604102708    -1.285293191
 H       -5.959319362    10.790955229    -1.654650446
 H       -6.071137373    12.309608524    -2.560447309
 H       -7.353437851    11.842877539    -1.449792592
 H       -4.501728830    12.877860634     2.463996141
 H       -2.990526921    13.455713304     3.149232647
 H       -3.065952495    11.835927908     2.470647530
 H       -1.034312410    13.983693413     0.021942783
 H       -0.962571399    12.533437003     1.040848865
 H       -1.057645202    14.128475355     1.774512281
 H       -2.554803919    -1.637659544    -0.725724108
 H       -2.467217359    -1.614771372    -2.479922041
 H       -2.693908250    -0.104338066    -1.609491561
 H        0.905546053    -0.144536375    -2.956116027
 H       -0.605608997     0.784404168    -2.979144430
 H       -0.529517093    -0.807461432    -3.722685177
 H       -0.483603154    -2.979515603     0.737681328
 H       -0.651610283    -2.875996455     2.483683007
 H        0.893373887    -2.487825371     1.741291881
 H       -0.624711348     0.837068556     2.889940740
 H        0.797501269    -0.207792800     3.048355213
 H       -0.754009510    -0.718343034     3.700535344

