187   

Si        0.000000000     0.000000000     0.000000000
 C        1.865118489     0.000000000     0.000000000
 C       -0.676193429     1.712425790     0.000000000
 C        0.093134679     2.783307868     0.467214582
 C       -0.420823223     4.079731732     0.466417835
 C       -1.714824425     4.335160913     0.004668391
 C       -2.486308623     3.260624750    -0.457371001
 C       -1.976257726     1.965069534    -0.457246077
 C       -2.293496748     5.674642609    -0.014593334
 C       -1.661928046     6.786161536     0.399676134
 C       -2.238702346     8.126351292     0.381257146
 C       -3.533058800     8.383434055    -0.080377098
 C       -4.044674028     9.680143739    -0.080223549
 C       -3.268013582    10.749813161     0.378942931
 C       -1.971754617    10.496213394     0.843276996
 C       -1.466345934     9.198341182     0.846712465
Si       -3.942085882    12.460094038     0.379420004
 C       -2.582689963    13.671758034     0.546812292
 C       -2.540826354    14.682345571     1.424289874
 C       -1.431186881    15.633240979     1.526730976
 C       -1.503784252    16.652580123     2.489397956
 C       -0.481684476    17.576745867     2.627035698
 C        0.637310065    17.526603204     1.771485820
 C        0.715187074    16.509165662     0.810619432
 C       -0.301949899    15.565143144     0.708610715
 N        1.651450076    18.504259459     1.965557034
 C        1.194455330    19.892384475     1.725453100
 C        2.943456392    18.217925665     1.317292731
 C        0.644341980    20.152409167     0.311580691
 C       -0.890874183    20.015534929     0.260380360
 N       -1.413237974    19.735155173    -1.088074251
 C       -1.121625997    20.676520969    -2.091016887
 C       -1.081633107    22.050270775    -1.765764176
 C       -0.796373555    22.993162315    -2.738666552
 C       -0.590064739    22.618492940    -4.074638055
 C       -0.661263962    21.262025316    -4.400636238
 C       -0.928958031    20.300867559    -3.433839063
 C       -1.321859669    18.312432557    -1.454108025
 C       -0.291807370    23.658863849    -5.059244315
 C       -0.075670813    23.428896388    -6.361575926
Si        0.295868890    24.743898894    -7.576724329
 C        1.183100574    26.152182612    -6.791909768
 C        2.107615744    25.899963120    -5.771123369
 C        2.792712417    26.948884817    -5.160563848
 C        2.579517770    28.270819523    -5.562257235
 C        1.660060125    28.520125841    -6.589155513
 C        0.971104733    27.474292038    -7.199105051
 C        3.274500216    29.399144860    -4.951141297
 C        4.176905391    29.294482260    -3.960841750
 C        4.873790037    30.420055688    -3.347321001
 C        4.662991921    31.743739025    -3.741529731
 C        5.351877456    32.789367115    -3.126648533
 C        6.263238251    32.532922078    -2.097567706
 C        6.476163806    31.205825454    -1.700108625
 C        5.791937802    30.164098105    -2.319765516
Si        7.180601146    33.901097975    -1.275565099
 C        6.447542583    35.565405256    -1.690533187
 C        7.126980670    33.609228336     0.604838792
 C        8.998241709    33.874116417    -1.839934859
 C        1.394692465    24.012032926    -8.945852768
 C       -1.333874092    25.340249531    -8.356457013
 C       -4.827132885    12.788964845    -1.272896242
 C       -5.199808156    12.641627912     1.793916788
 C       -0.648123774    -0.917798995    -1.537182380
 C       -0.626576276    -0.911182479     1.549003296
 H        1.112411016     2.646295236     0.839054660
 H        0.199593575     4.895965000     0.832237021
 H       -3.497033284     3.437184843    -0.820402534
 H       -2.625644545     1.167134945    -0.827829818
 H       -3.315137742     5.726183799    -0.402028974
 H       -0.640156859     6.733564714     0.787382923
 H       -4.154397652     7.567761547    -0.445248794
 H       -5.063399598     9.819848304    -0.452480265
 H       -1.322849575    11.294346069     1.218037548
 H       -0.457820512     9.018568131     1.214694881
 H       -1.762475726    13.507603276    -0.172277185
 H       -3.344232444    14.876881637     2.146805592
 H       -2.371178310    16.712659589     3.147420783
 H       -0.530551855    18.338304702     3.402745524
 H        1.566047755    16.445149986     0.138742526
 H       -0.213048518    14.770598627    -0.033896868
 H        3.697180836    18.924367301     1.708065924
 H        2.931301526    18.296535062     0.219158546
 H        3.277916962    17.203948914     1.598911816
 H       -1.591185973    17.682347255    -0.585541347
 H       -0.319472336    18.006689336    -1.792988984
 H       -2.057881090    18.093091452    -2.248234279
 H       -1.272183216    22.375547703    -0.747119096
 H       -0.747268328    24.047138251    -2.461191376
 H       -0.505890693    20.943406021    -5.432294018
 H       -0.973590687    19.257966469    -3.730079097
 H       -0.252661024    24.667086581    -4.621152266
 H       -0.129853519    22.413586451    -6.780674795
 H        2.317776192    24.884857753    -5.416708628
 H        3.501390351    26.727354445    -4.364714790
 H        1.479783423    29.541882257    -6.917260249
 H        0.266781594    27.730167090    -7.995126815
 H        3.008706856    30.377652269    -5.361356252
 H        4.442323630    28.315040342    -3.551869843
 H        3.955798865    31.970543002    -4.537230946
 H        5.145582604    33.803807627    -3.478919231
 H        7.176334159    30.945211368    -0.901333928
 H        5.972474617    29.139846663    -1.999150721
 H        0.429081528    20.136552386     2.495929790
 H        2.053424143    20.570219898     1.931528697
 H        0.939209137    21.160399973    -0.035976308
 H        1.107288572    19.455259569    -0.412535807
 H       -1.235209905    19.199952276     0.938371610
 H       -1.376212410    20.942273625     0.641266975
 H        2.262618304    -1.029289183    -0.054044494
 H        2.277025514     0.467952155     0.911053826
 H        2.259320268     0.554779570    -0.871026289
 H        6.974825284    36.376625355    -1.157324078
 H        5.382935929    35.613246841    -1.397606339
 H        6.510082228    35.782454238    -2.771263972
 H        7.630770252    32.613851830     0.777521053
 C        7.892696364    34.671149516     1.413919903
 C        5.688659254    33.508257454     1.144239272
 H        9.484629653    34.762680443    -1.342761161
 C        9.760528544    32.609377781    -1.405850646
 C        9.145371035    34.039559632    -3.363635854
 H        0.803051220    23.166558492    -9.401775113
 C        1.723413354    25.021093014   -10.059961555
 C        2.708717971    23.431322125    -8.392989492
 H       -1.049669624    26.126771728    -9.113590612
 C       -2.096642047    24.225700765    -9.094643639
 C       -2.273407188    25.986151792    -7.322279205
 H       -5.675429328    12.046562326    -1.323353431
 C       -5.424330070    14.203915461    -1.364442806
 C       -3.914174756    12.548717023    -2.488418152
 H       -5.494816388    13.730974327     1.807203707
 C       -6.476912830    11.807405347     1.590312303
 C       -4.593914246    12.289960932     3.164921304
 H       -1.773051000    -0.924463401    -1.443566870
 C       -0.288353383    -0.197877072    -2.849474576
 C       -0.175960983    -2.380285791    -1.622466356
 H       -0.156943110    -1.936376215     1.513956311
 C       -0.186438392    -0.228201756     2.856641522
 C       -2.155652814    -1.087367510     1.574165582
 H        8.950323173    34.753761008     1.132094567
 H        7.879089641    34.410466878     2.482267811
 H        7.446786731    35.671650857     1.337022323
 H        5.093691975    32.727288419     0.649365818
 H        5.131465981    34.450747935     1.060757305
 H        5.703763146    33.251396225     2.213009333
 H        9.776291894    32.461109302    -0.318751458
 H       10.812104227    32.678755573    -1.720581019
 H        9.364208030    31.693419094    -1.866341311
 H        8.696809737    34.964651818    -3.747863743
 H        8.712763141    33.200765529    -3.927815954
 H       10.209513035    34.077741555    -3.637503552
 H        0.833834520    25.412900266   -10.569409715
 H        2.334017372    24.538559293   -10.836773740
 H        2.308707653    25.879754293    -9.700725749
 H        2.555880304    22.656809808    -7.629062532
 H        3.366369745    24.199298237    -7.960802412
 H        3.281545923    22.957425718    -9.202568486
 H       -1.520486145    23.768686462    -9.909069540
 H       -3.006644238    24.635710273    -9.556045725
 H       -2.429482073    23.420016694    -8.425182349
 H       -1.820131783    26.831689922    -6.786681611
 H       -2.630644278    25.271266135    -6.566375850
 H       -3.169604219    26.381450094    -7.820458357
 H       -6.160930774    14.416942240    -0.578956412
 H       -5.951975071    14.328551496    -2.320994359
 H       -4.661354289    14.994996413    -1.328969436
 H       -3.481422566    11.538552882    -2.515038098
 H       -3.085937698    13.267536812    -2.551469701
 H       -4.489545899    12.658827985    -3.418794226
 H       -7.023762684    12.062853030     0.673828424
 H       -7.175679141    11.982305786     2.421600792
 H       -6.284187514    10.725346872     1.578121412
 H       -3.697471125    12.873991295     3.413904381
 H       -4.326006982    11.226772055     3.251623034
 H       -5.323741925    12.488772292     3.962397476
 H       -0.638796331     0.843575962    -2.884162689
 H       -0.758965604    -0.708917965    -3.701436480
 H        0.790900404    -0.189720107    -3.052162901
 H       -0.461755040    -2.981124812    -0.749429793
 H        0.910525430    -2.473147828    -1.751447292
 H       -0.631308068    -2.871079122    -2.494967218
 H        0.902793116    -0.138082542     2.956730357
 H       -0.526364126    -0.816129188     3.721387551
 H       -0.617229285     0.775958635     2.979779408
 H       -2.542701709    -1.655600589     0.718909246
 H       -2.695394262    -0.130539055     1.614946615
 H       -2.454738248    -1.645854972     2.473117487

