187   

Si        0.000000000     0.000000000     0.000000000
 C        1.865378719     0.000000000     0.000000000
 C       -0.681451371     1.709997982     0.000000000
 C        0.140331876     2.817608711    -0.230517116
 C       -0.390265314     4.107668337    -0.227506859
 C       -1.752726299     4.319265444    -0.001747299
 C       -2.575616102     3.207967628     0.226297798
 C       -2.048407691     1.919741930     0.228208421
 C       -2.352284948     5.649427875     0.010623273
 C       -1.679002429     6.795235814    -0.188852545
 C       -2.281483206     8.124191197    -0.175881002
 C       -1.462085133     9.238441121    -0.398944813
 C       -1.993075521    10.526050106    -0.395692806
 C       -3.357508324    10.730200384    -0.157784598
 C       -4.178046771     9.618473926     0.065305877
 C       -3.645323318     8.330503387     0.050735458
Si       -4.083150254    12.419841137    -0.148165820
 C       -5.499150724    12.553454125     1.001318158
 C       -5.627712398    11.830093955     2.121608298
 C       -6.760923920    11.936606954     3.042104115
 C       -6.779971887    11.121967514     4.185302291
 C       -7.827595366    11.183358590     5.087490341
 C       -8.883248917    12.099971790     4.890481139
 C       -8.869620806    12.911516773     3.744365900
 C       -7.830733132    12.806988046     2.825651653
 N       -9.928940967    12.125567428     5.837181401
 C       -9.516860941    12.224405007     7.256427825
 C      -11.100458384    12.955954538     5.514863769
 C       -8.274115073    13.085871161     7.535236856
 C       -8.432479906    14.549390593     7.082280970
 N       -7.142561611    15.207843274     6.778377236
 C       -6.187082816    15.133471271     7.822671269
 C       -6.576707125    15.546426530     9.113584872
 C       -5.677424457    15.491823462    10.165531610
 C       -4.354399400    15.069037631     9.964918972
 C       -3.965649309    14.685791833     8.679478882
 C       -4.861610499    14.718972111     7.616702714
 C       -6.648922125    14.884619051     5.427737259
 C       -3.445290752    15.030235776    11.112071203
 C       -2.163749017    14.645321649    11.043410599
Si       -1.026286432    14.595889567    12.474197757
 C       -1.915232264    14.258387141    14.048916009
 C       -3.046747306    13.431800491    14.043489535
 C       -3.731915604    13.165432867    15.225673400
 C       -3.297293771    13.705378167    16.443554228
 C       -2.163261955    14.522125640    16.447271632
 C       -1.477526289    14.794840942    15.263949147
 C       -4.049054381    13.397072213    17.655504083
 C       -3.743766233    13.852293438    18.882505069
 C       -4.496076624    13.543515782    20.094058562
 C       -5.629789218    12.726961665    20.090151789
 C       -6.319224747    12.457808628    21.272432731
 C       -5.884375932    12.995833621    22.487709538
 C       -4.746913629    13.814756515    22.494538214
 C       -4.064370442    14.086043620    21.312055135
Si       -6.782946772    12.650314466    24.056740144
 C       -8.009661650    11.259784805    23.853417931
 C       -5.500997676    12.206146242    25.392101440
 C       -7.717695900    14.213238442    24.610660645
 C        0.242495163    13.209120559    12.180862058
 C       -0.103431334    16.256108541    12.581151491
 C       -2.769986324    13.696284242     0.368895151
 C       -4.689531164    12.836741871    -1.901682024
 C       -0.605170305    -0.927140562    -1.548596832
 C       -0.659334775    -0.900351703     1.542060757
 H        1.213276232     2.714932626    -0.414771712
 H        0.271561715     4.953211181    -0.405763708
 H       -3.639752557     3.350775007     0.404959883
 H       -2.738638006     1.092144555     0.415191159
 H       -3.429924777     5.663133477     0.199608469
 H       -0.601815298     6.782437191    -0.378275467
 H       -0.397898027     9.099590775    -0.579218568
 H       -1.305745641    11.355819883    -0.581223419
 H       -5.252775250     9.718319379     0.252656885
 H       -4.305161729     7.481840944     0.222243043
 H       -6.254011911    13.300411317     0.712717787
 H       -4.883398892    11.084621884     2.436628744
 H       -5.962875726    10.420385219     4.361466489
 H       -7.846851166    10.517978829     5.947521262
 H       -9.666049110    13.624840287     3.559026813
 H       -7.851962992    13.432422049     1.932066922
 H      -11.924077408    12.689368546     6.201483418
 H      -11.453554440    12.718640585     4.495305623
 H      -10.924394181    14.040807540     5.588268034
 H       -7.442461274    15.091412594     4.688388964
 H       -6.343161770    13.832384544     5.297342467
 H       -5.798340887    15.543481582     5.181176824
 H       -7.587029768    15.909728738     9.282178864
 H       -6.000631386    15.797546147    11.161107411
 H       -2.943643669    14.351487722     8.497133852
 H       -4.524131154    14.401327576     6.634266565
 H       -3.921378803    15.344818166    12.051772362
 H       -1.708517561    14.345589682    10.087133938
 H       -3.428756533    12.978408757    13.122437702
 H       -4.613085986    12.527252318    15.200931485
 H       -1.804162744    14.953653969    17.379622513
 H       -0.597522685    15.440387857    15.330352370
 H       -4.914198308    12.745032134    17.503487431
 H       -2.878591663    14.504181420    19.034959945
 H       -5.986471510    12.292304389    19.158212164
 H       -7.199672319    11.812811378    21.205910568
 H       -4.360352459    14.262271925    23.414619965
 H       -3.184060780    14.725586142    21.337112583
 H      -10.373478034    12.592387166     7.861765485
 H       -9.320972796    11.179720623     7.601382105
 H       -8.039724242    13.052862230     8.617254596
 H       -7.385809023    12.639593729     7.042589100
 H       -9.071090902    14.617683205     6.174542434
 H       -8.948557931    15.145733045     7.866559248
 H        2.262933402    -1.029875638     0.041387595
 H        2.262376335     0.543832914     0.876374151
 H        2.274226416     0.477943714    -0.907476598
 H       -8.514705568    11.031649210    24.809021202
 H       -7.507900006    10.335146554    23.514742824
 H       -8.792028954    11.508778082    23.115308382
 H       -4.829058217    13.108223010    25.488023001
 C       -6.122484788    11.932596823    26.773188637
 C       -4.623766372    11.006674094    24.990162112
 H       -8.286321865    13.914891861    25.538508976
 C       -6.794091773    15.389106749    24.975801149
 C       -8.736103114    14.694140164    23.560720508
 H        0.770219663    13.467286205    11.217728312
 C        1.299581336    13.111477549    13.294494700
 C       -0.427543632    11.834545010    12.004930848
 H        0.623416938    16.156224555    13.438160096
 C        0.702482751    16.584272254    11.311560779
 C       -1.049835049    17.430397418    12.888617120
 H       -1.944899923    13.625878670    -0.397072468
 C       -3.297219820    15.142278497     0.367477843
 C       -2.169649951    13.386076433     1.751991258
 H       -5.108440743    13.882783418    -1.847768527
 C       -3.562149330    12.826261622    -2.948571918
 C       -5.814050188    11.894615851    -2.367566674
 H       -0.096152208    -1.933811956    -1.517509908
 C       -2.125650903    -1.164077765    -1.575679746
 C       -0.193063847    -0.223860659    -2.854923480
 H       -1.784103556    -0.895248024     1.445130407
 C       -0.201379935    -2.366341970     1.640282955
 C       -0.296846512    -0.172553095     2.849299818
 H       -6.709028949    12.775478306    27.160988021
 H       -5.328791035    11.745522651    27.511206175
 H       -6.766749422    11.043499922    26.784437163
 H       -4.101617177    11.152258117    24.033553134
 H       -5.187418447    10.067028287    24.919315348
 H       -3.841376590    10.841927593    25.744698129
 H       -6.083289562    15.153079872    25.777770423
 H       -7.392829940    16.237829597    25.337551866
 H       -6.221461592    15.764201272    24.115821093
 H       -9.488670122    13.937615300    23.304002546
 H       -8.261741294    15.022523398    22.624648766
 H       -9.291775406    15.561762463    23.944553829
 H        1.889106222    14.028892691    13.417727801
 H        2.019311764    12.313486713    13.061102638
 H        0.868189903    12.856698007    14.273204755
 H       -1.158578350    11.807001190    11.185357434
 H       -0.936699201    11.487893022    12.915745684
 H        0.329378650    11.073336721    11.768471646
 H        1.457123700    15.826545504    11.065624177
 H        1.249599691    17.528321830    11.447939549
 H        0.066239435    16.724490398    10.426290804
 H       -1.624231449    17.298367904    13.815987408
 H       -1.770258260    17.620783657    12.079565051
 H       -0.473502799    18.357917849    13.012598626
 H       -3.673914842    15.467982782    -0.610397404
 H       -2.486334819    15.837485462     0.629394154
 H       -4.093521666    15.307667415     1.106875473
 H       -1.716926609    12.386895664     1.817199989
 H       -2.905544029    13.468974096     2.565279632
 H       -1.368967603    14.101939079     1.985309365
 H       -2.761255906    13.545361155    -2.734360941
 H       -3.962867949    13.098905328    -3.935751424
 H       -3.099686272    11.836045669    -3.069902696
 H       -6.686210244    11.891414252    -1.699716571
 H       -5.479336770    10.853230114    -2.481091849
 H       -6.182917353    12.206922452    -3.354894178
 H       -2.494802553    -1.729757778    -0.710944800
 H       -2.397513115    -1.752095958    -2.464518276
 H       -2.701719595    -0.230322710    -1.640221342
 H        0.891548855    -0.088568244    -2.954917092
 H       -0.663668859     0.762577321    -2.975483720
 H       -0.508714484    -0.822890408    -3.721115308
 H       -0.486712146    -2.970506357     0.769424145
 H       -0.666864078    -2.847035216     2.513092521
 H        0.883406358    -2.467906182     1.776933065
 H       -0.644333338     0.870212350     2.875887102
 H        0.782114957    -0.166963556     3.052948013
 H       -0.770497715    -0.675432237     3.704489245

