187   

Si        0.000000000     0.000000000     0.000000000
 C        1.865233968     0.000000000     0.000000000
 C       -0.677616413     1.711679942     0.000000000
 C        0.122259154     2.802258589    -0.356008405
 C       -0.399498826     4.095724710    -0.353203604
 C       -1.731677063     4.328103642    -0.001367043
 C       -2.533251912     3.233761271     0.350270909
 C       -2.015058615     1.941665312     0.349669305
 C       -2.320028715     5.663330406     0.015641372
 C       -1.662698294     6.792808184    -0.297638371
 C       -2.250094643     8.128456690    -0.280948312
 C       -3.582921331     8.361033092     0.071050039
 C       -4.103533503     9.654251756     0.073557568
 C       -3.296679620    10.744817511    -0.268789308
 C       -1.961285307    10.516087150    -0.622229727
 C       -1.447360821     9.221705176    -0.631803878
Si       -3.977541488    12.452648421    -0.267319517
 C       -2.615370495    13.666646768    -0.159581474
 C       -2.447732462    14.728298020    -0.958343575
 C       -1.339436990    15.677717197    -0.836575952
 C       -1.270494323    16.754355708    -1.734780403
 C       -0.243648503    17.679557834    -1.662512995
 C        0.738234295    17.574144581    -0.653748626
 C        0.675030093    16.495212644     0.242573421
 C       -0.340753917    15.551742283     0.130847300
 N        1.765334666    18.542338541    -0.622047208
 C        1.319261825    19.954493409    -0.642184288
 C        2.880007668    18.294908311     0.306404923
 C        0.018972895    20.258903876     0.119490747
 C        0.108303838    19.935974890     1.622180384
 N       -1.209640800    19.704978898     2.245839354
 C       -2.144724421    20.753618525     2.137185132
 C       -1.703868579    22.090883034     2.238115080
 C       -2.606185090    23.136594569     2.134185998
 C       -3.979371242    22.897238391     1.978654726
 C       -4.417346543    21.572328918     1.910959276
 C       -3.523617861    20.512065779     1.994567856
 C       -1.716005317    18.341117046     2.012512861
 C       -4.888576138    24.039298749     1.873805164
 C       -6.215864734    23.933710952     1.723291530
Si       -7.353456210    25.358818465     1.592109924
 C       -6.736657603    26.824003410     2.517727575
 C       -5.981020160    26.645372249     3.682344017
 C       -5.506587325    27.745603356     4.394731785
 C       -5.787108932    29.047058531     3.968872499
 C       -6.551301673    29.223489547     2.808091082
 C       -7.022974030    28.126385290     2.091400694
 C       -5.311741650    30.227789003     4.682477185
 C       -4.572547399    30.197361230     5.804367343
 C       -4.096834862    31.377580998     6.518499284
 C       -4.372461865    32.679097950     6.091715395
 C       -3.897408607    33.779457593     6.805370525
 C       -3.128482326    33.600725334     7.959559120
 C       -2.849766926    32.296043523     8.389181862
 C       -3.330555590    31.200029340     7.678467385
Si       -2.494332473    35.042685056     8.912206319
 C       -2.651612843    36.628159699     7.941958515
 C       -3.480516135    35.215121811    10.531135177
 C       -0.670034941    34.715935220     9.346950049
 C       -7.582088279    25.792726204    -0.246339875
 C       -9.038046758    24.846979358     2.312752110
 C       -5.009321080    12.712462328    -1.843299284
 C       -5.105461111    12.689979682     1.247022075
 C       -0.619005956    -0.917820708    -1.548217951
 C       -0.653542882    -0.908904775     1.539917462
 H        1.171470325     2.683374003    -0.640340497
 H        0.245233932     4.927696515    -0.630739010
 H       -3.573762849     3.392513710     0.627162735
 H       -2.688285491     1.127734830     0.632984936
 H       -3.372938430     5.695506236     0.310568516
 H       -0.609797565     6.760134004    -0.593027536
 H       -4.227992324     7.528803262     0.346289569
 H       -5.153364238     9.774209429     0.354884311
 H       -1.287226389    11.332235841    -0.902175374
 H       -0.408245687     9.061311681    -0.913335354
 H       -1.909841122    13.455464333     0.661602830
 H       -3.135211992    14.969967751    -1.779431605
 H       -2.030631346    16.860096194    -2.509756658
 H       -0.183585491    18.486853102    -2.388777092
 H        1.415819236    16.380246489     1.027441440
 H       -0.358261854    14.710593610     0.825991687
 H        3.700285372    18.997551093     0.074791489
 H        3.279678020    17.278530915     0.137285174
 H        2.619931167    18.401524625     1.371153571
 H       -0.900922558    17.608597691     2.149265847
 H       -2.132295565    18.187934849     1.002604511
 H       -2.489478781    18.105550008     2.764704676
 H       -0.651295353    22.307530474     2.395264250
 H       -2.241266889    24.162981027     2.191227910
 H       -5.480054818    21.357448640     1.790645521
 H       -3.906886398    19.498311625     1.932249600
 H       -4.373717169    25.008673862     1.938153097
 H       -6.705450735    22.950689446     1.652698251
 H       -5.735048454    25.649551921     4.067373645
 H       -4.914579885    27.580433853     5.293186273
 H       -6.781640671    30.228361555     2.459864967
 H       -7.614286154    28.326408654     1.193887675
 H       -5.603532194    31.181793119     4.233887009
 H       -4.281414807    29.242970833     6.253147052
 H       -4.964921240    32.845535624     5.193974779
 H       -4.147250294    34.773013110     6.423138254
 H       -2.253414210    32.095450969     9.283805269
 H       -3.105451220    30.194433522     8.028871573
 H        2.138871090    20.602883947    -0.263246377
 H        1.183151692    20.226112342    -1.717651963
 H       -0.248576368    21.324773533    -0.020351317
 H       -0.824923968    19.696596199    -0.330276389
 H        0.729046682    19.027972075     1.793333655
 H        0.618277232    20.758669314     2.170870188
 H        2.262989719    -1.029125501     0.055371774
 H        2.260649201     0.555927594     0.869627468
 H        2.275596601     0.466121529    -0.912802364
 H       -2.225646389    37.480668105     8.500650051
 H       -3.705941204    36.869502665     7.720361121
 H       -2.111734172    36.559034692     6.980109110
 H       -3.082090901    36.143742615    11.033255060
 C       -4.987384828    35.414145505    10.285163416
 C       -3.291278801    34.032484172    11.497889492
 H       -0.664822353    33.776808477     9.973414730
 C        0.194629035    34.454450072     8.100397915
 C       -0.025685797    35.839879716    10.177784057
 H       -8.335823370    26.631407281    -0.279668226
 C       -6.278475538    26.293580170    -0.893714150
 C       -8.136441396    24.623891125    -1.080301710
 H       -9.378562043    23.957220462     1.708696731
 C       -8.933070770    24.412841769     3.785803737
 C      -10.107662755    25.946109436     2.190072217
 H       -5.313771819    13.799100542    -1.839237372
 C       -4.199612340    12.444418416    -3.125087326
 C       -6.290416536    11.860373689    -1.881511637
 H       -5.950990814    11.953083938     1.124182343
 C       -4.388439001    12.373435187     2.571547355
 C       -5.711281070    14.102188966     1.329009464
 H       -0.134746388    -1.936328879    -1.514441870
 C       -2.145221895    -1.115906395    -1.574180838
 C       -0.188831189    -0.227675921    -2.855620273
 H       -1.778249811    -0.913150911     1.443131042
 C       -0.184333292    -2.371623473     1.634749331
 C       -0.296594014    -0.181683998     2.849009192
 H       -5.216934364    36.290699078     9.665842189
 H       -5.508031699    35.568961655    11.241094078
 H       -5.461975347    34.540942653     9.814676359
 H       -2.246388006    33.872445925    11.792250625
 H       -3.677715447    33.085824850    11.094593733
 H       -3.846776339    34.216806562    12.429096183
 H       -0.173754124    33.621877271     7.484005915
 H        1.217263664    34.184905118     8.400538995
 H        0.285421570    35.333269418     7.448395064
 H       -0.551046340    36.039886189    11.120576176
 H        0.049977261    36.788093767     9.629239146
 H        1.002201714    35.561242588    10.452231790
 H       -5.847746009    27.168972441    -0.387947631
 H       -6.465188902    26.598844710    -1.932727825
 H       -5.498117234    25.519721942    -0.934733540
 H       -9.110214577    24.260559341    -0.728181544
 H       -7.451765219    23.765039909    -1.119955365
 H       -8.287163202    24.943826805    -2.121415395
 H       -8.227078234    23.586806219     3.948135833
 H       -9.909640565    24.059150045     4.145395211
 H       -8.639892461    25.235771792     4.453715826
 H      -10.309378041    26.244268175     1.153426211
 H       -9.855449152    26.853979089     2.756795719
 H      -11.064036007    25.587628342     2.597573976
 H       -3.281792605    13.043415650    -3.200089431
 H       -4.802227653    12.690125459    -4.010782707
 H       -3.911075711    11.388603026    -3.232760342
 H       -6.977120908    12.067787080    -1.051085049
 H       -6.086633281    10.780217418    -1.889063331
 H       -6.853141384    12.070078234    -2.802984076
 H       -3.961382786    11.361023346     2.604516945
 H       -5.099405380    12.432741656     3.408014164
 H       -3.581498193    13.082361340     2.802119532
 H       -6.313073032    14.369058374     0.450730897
 H       -4.952468190    14.886459563     1.464080672
 H       -6.384899609    14.172670731     2.195041815
 H       -2.525376123    -1.686154608    -0.717206703
 H       -2.434924506    -1.682305725    -2.471308599
 H       -2.698251790    -0.167045577    -1.620526961
 H        0.898862603    -0.119710664    -2.954973705
 H       -0.635316489     0.769576525    -2.978852133
 H       -0.518485038    -0.820759063    -3.720733999
 H       -0.464619459    -2.975854645     0.762313975
 H       -0.646577341    -2.858012400     2.506119043
 H        0.901127986    -2.465230191     1.771771691
 H       -0.650467760     0.858857570     2.877826528
 H        0.782325295    -0.169437763     3.052941276
 H       -0.766977892    -0.689673130     3.702932314

