187   

Si        0.000000000     0.000000000     0.000000000
 C        1.865262778     0.000000000     0.000000000
 C       -0.678993079     1.710978016     0.000000000
 C        0.126462256     2.807237746    -0.324208285
 C       -0.398897186     4.099317081    -0.320914139
 C       -1.740367067     4.324432005    -0.001461502
 C       -2.547377955     3.224355606     0.318667427
 C       -2.025385199     1.933904115     0.318931326
 C       -2.333519256     5.657439474     0.014986501
 C       -1.673273254     6.793180919    -0.268367436
 C       -2.268367284     8.125471890    -0.251351543
 C       -1.462701522     9.227460415    -0.568389192
 C       -1.986807053    10.517376738    -0.565196083
 C       -3.334714599    10.734258343    -0.252449218
 C       -4.141316891     9.636236057     0.063928461
 C       -3.610909616     8.346632280     0.067609589
Si       -4.034164093    12.435871179    -0.246237588
 C       -5.856696813    12.354046452    -0.346386832
 C       -6.719018338    12.992903625     0.455098659
 C       -8.174792513    12.896123464     0.335737793
 C       -8.979129852    13.612187676     1.233874060
 C      -10.361321445    13.554044037     1.162822147
 C      -10.994220643    12.725828932     0.210765020
 C      -10.187290393    12.005089120    -0.690014590
 C       -8.803718848    12.112699712    -0.635581512
 N      -12.399118510    12.676505995     0.149759994
 C      -13.127159230    12.803629403     1.425947755
 C      -12.989855804    11.665914923    -0.744875405
 C      -12.779500229    11.693789540     2.434217748
 C      -13.836814119    11.531495593     3.538423347
 N      -15.199612805    11.171237996     3.083022668
 C      -15.257011092    10.309324838     1.964196782
 C      -14.537386353     9.096940513     2.026200783
 C      -14.560392560     8.217614412     0.957431550
 C      -15.319584403     8.493639647    -0.190587305
 C      -16.051066748     9.681952998    -0.236424775
 C      -16.034288185    10.578651765     0.826738432
 C      -16.136635702    12.306185566     3.088213116
 C      -15.308347256     7.528945505    -1.292509778
 C      -15.992799120     7.687726150    -2.432424170
Si      -16.018039973     6.521571935    -3.839615685
 C      -17.755900356     6.176719797    -4.330926537
 C      -18.800223860     6.380308107    -3.420520676
 C      -20.117355614     6.119829080    -3.790287451
 C      -20.421373958     5.640743222    -5.071192563
 C      -19.375412423     5.432631524    -5.975016877
 C      -18.055919700     5.696223561    -5.610063884
 C      -21.816871892     5.382991920    -5.410950790
 C      -22.243511153     4.927878552    -6.601162212
 C      -23.639221687     4.670349527    -6.940217172
 C      -24.685245955     4.878081234    -6.037471641
 C      -26.005806272     4.618638667    -6.403823941
 C      -26.309458398     4.150947285    -7.686151485
 C      -25.262195640     3.942498169    -8.593925894
 C      -23.944684305     4.197095523    -8.223468258
Si      -28.047037042     3.803716111    -8.185398737
 C      -29.266590850     4.505002230    -6.960444913
 C      -28.334930013     4.560710157    -9.908067419
 C      -28.310118290     1.921893286    -8.299502851
 C      -15.088306504     7.324928819    -5.292821324
 C      -15.160399631     4.883340989    -3.397256172
 C       -3.470045847    13.338768237     1.329426995
 C       -3.386876305    13.387095124    -1.762190594
 C       -0.616099378    -0.920410899    -1.548011686
 C       -0.654673605    -0.906656457     1.540731990
 H        1.182752179     2.693901021    -0.583255637
 H        0.250410058     4.935972892    -0.572267831
 H       -3.595016692     3.377616299     0.570695315
 H       -2.702912840     1.115519873     0.578193859
 H       -3.393864627     5.682559171     0.283232577
 H       -0.613082363     6.768755032    -0.536588200
 H       -0.414684000     9.076399364    -0.819260369
 H       -1.310799291    11.338727444    -0.818097901
 H       -5.200379034     9.748325151     0.318938010
 H       -4.257350186     7.508320062     0.320517448
 H       -6.216217887    11.713829324    -1.169605937
 H       -6.395470448    13.644314736     1.277432500
 H       -8.511926948    14.237766656     1.994952302
 H      -10.954950314    14.151179450     1.848548690
 H      -10.632673977    11.361693926    -1.442457050
 H       -8.202936745    11.556732959    -1.357422924
 H      -14.092336245    11.705658442    -0.687625309
 H      -12.683316761    10.632952590    -0.510332173
 H      -12.712162214    11.899407444    -1.788315042
 H      -16.132578841    12.768133387     4.091488565
 H      -17.163001859    11.933380493     2.917657728
 H      -15.914662929    13.086420646     2.343785342
 H      -13.969169728     8.855193241     2.921577145
 H      -13.989300102     7.290321356     1.016627115
 H      -16.654036370     9.917288700    -1.115140134
 H      -16.616568083    11.491822273     0.754306068
 H      -14.681712539     6.650303280    -1.091650721
 H      -16.609357418     8.586233023    -2.604778651
 H      -18.621005042     6.748049387    -2.404856959
 H      -20.917629039     6.288515046    -3.072042740
 H      -19.584842219     5.060848412    -6.976206062
 H      -17.280327176     5.515714184    -6.359392878
 H      -22.529144818     5.589995448    -4.606708784
 H      -21.531914523     4.720549602    -7.405686956
 H      -24.476145669     5.245569280    -5.034416461
 H      -26.781003255     4.799229781    -5.653961664
 H      -25.439606662     3.578932898    -9.610037385
 H      -23.144889268     4.027571105    -8.941841507
 H      -12.916327370    13.807185074     1.857470930
 H      -14.216967045    12.796899266     1.195864538
 H      -12.643757497    10.733652970     1.895427495
 H      -11.793663013    11.900419462     2.895360246
 H      -13.513604240    10.718940921     4.234299792
 H      -13.888298432    12.457731392     4.150868573
 H        2.263052026    -1.029206079     0.053263683
 H        2.260837052     0.554129687     0.870695332
 H        2.275307814     0.467991646    -0.912002305
 H      -30.306480602     4.331848465    -7.290564510
 H      -29.132028019     5.596156586    -6.847675532
 H      -29.154011458     4.046150460    -5.962545887
 H      -27.595289412     4.055525944   -10.595195852
 C      -29.746536965     4.302622890   -10.464152771
 C      -28.051038476     6.073370180    -9.941932355
 H      -29.402568719     1.781843241    -8.544845312
 C      -27.482939265     1.248118874    -9.408860439
 C      -28.024266539     1.204882870    -6.967208256
 H      -15.092154923     6.562535197    -6.124618579
 C      -15.786963945     8.595127451    -5.809590777
 C      -13.623731154     7.658236831    -4.958115087
 H      -14.136445861     5.162137564    -3.013498966
 C      -15.898976561     4.116259024    -2.285293919
 C      -14.976713173     3.946724627    -4.604675649
 H       -4.009392105    14.330142303     1.327629418
 C       -3.861277324    12.580626928     2.611248432
 C       -1.957426743    13.621204370     1.365856380
 H       -2.265873487    13.435413909    -1.643910964
 C       -3.693752538    12.664216535    -3.085853038
 C       -3.920829426    14.827985314    -1.840887049
 H       -0.126918440    -1.936596289    -1.514229563
 C       -2.141264499    -1.126376620    -1.574360651
 C       -0.189432805    -0.228302897    -2.855553151
 H       -1.779357971    -0.909616175     1.443641535
 C       -0.187145773    -2.369801860     1.637251684
 C       -0.297322545    -0.178293550     2.849079224
 H      -29.996965614     3.236401723   -10.537201574
 H      -29.827899710     4.707523414   -11.483475594
 H      -30.534633377     4.791833726    -9.876490273
 H      -27.036220890     6.332092821    -9.607163935
 H      -28.757624614     6.656414024    -9.336508813
 H      -28.140202606     6.450786990   -10.970613891
 H      -27.686475426     1.649130864   -10.409771077
 H      -27.720942859     0.175300703    -9.454940084
 H      -26.400022216     1.312948768    -9.232275851
 H      -28.638655329     1.570217266    -6.134275755
 H      -26.970826589     1.277543745    -6.660485377
 H      -28.243245454     0.131648676    -7.062344500
 H      -16.832711860     8.428177376    -6.104422625
 H      -15.272637773     8.969463529    -6.706295915
 H      -15.774323856     9.417430431    -5.081216777
 H      -13.034229918     6.780343319    -4.663663371
 H      -13.526545779     8.408093668    -4.159884684
 H      -13.123293432     8.081355654    -5.840968385
 H      -16.037480549     4.699483308    -1.364756583
 H      -15.328321031     3.220913442    -2.001047853
 H      -16.891082839     3.761130082    -2.600183449
 H      -14.369904514     4.383874096    -5.407766919
 H      -15.930670034     3.620230181    -5.042515279
 H      -14.455564609     3.029790169    -4.292529279
 H       -4.937279795    12.372901807     2.688423908
 H       -3.596472463    13.174581458     3.497145360
 H       -3.334639763    11.620873257     2.715334628
 H       -1.609217842    14.240731914     0.529686197
 H       -1.351389112    12.704435074     1.381852357
 H       -1.700534817    14.172189872     2.282343821
 H       -3.305747474    11.636441145    -3.121031274
 H       -3.224087911    13.197864703    -3.924320627
 H       -4.768273736    12.621712490    -3.311089342
 H       -3.661510526    15.436856794    -0.965272063
 H       -5.012376698    14.873579893    -1.966096358
 H       -3.490101700    15.342288943    -2.711815013
 H       -2.519076415    -1.695892419    -0.715876495
 H       -2.427379306    -1.697017793    -2.469932274
 H       -2.698951370    -0.180472214    -1.624215694
 H        0.897694842    -0.114653761    -2.954838382
 H       -0.640921036     0.766702104    -2.978773881
 H       -0.515999671    -0.823120613    -3.720600849
 H       -0.468091309    -2.974628686     0.765452791
 H       -0.649970826    -2.854675794     2.509142617
 H        0.898200598    -2.464459313     1.774395452
 H       -0.650510966     0.862556213     2.876572967
 H        0.781550462    -0.166612098     3.053165656
 H       -0.768311752    -0.684878606     3.703484462

