187   

Si        0.000000000     0.000000000     0.000000000
 C        1.865424357     0.000000000     0.000000000
 C       -0.677567948     1.711510110     0.000000000
 C        0.123754166     2.804861118    -0.343955460
 C       -0.400195588     4.097558307    -0.340559510
 C       -1.735483305     4.326320433     0.001514206
 C       -2.538381972     3.229149713     0.341585068
 C       -2.018437292     1.937849992     0.339232862
 C       -2.327429788     5.659815431     0.019159385
 C       -1.672719413     6.793527547    -0.284064039
 C       -2.268595112     8.125550939    -0.265179013
 C       -3.605770262     8.346611608     0.078250992
 C       -4.135929310     9.635765714     0.083738673
 C       -3.334950044    10.734305587    -0.247572249
 C       -1.995575120    10.517041155    -0.592659300
 C       -1.471774607     9.226409461    -0.604994392
Si       -4.033308219    12.435955292    -0.240714299
 C       -2.680746962    13.662481618    -0.163619869
 C       -2.535002646    14.723149857    -0.968499825
 C       -1.432971147    15.681709517    -0.869968412
 C       -1.383814413    16.755715979    -1.768744639
 C       -0.361541004    17.690359471    -1.717156854
 C        0.691794568    17.548544821    -0.788583968
 C        0.644667028    16.465684274     0.112050523
 C       -0.413152963    15.567630275     0.079549462
 N        1.731476958    18.492543868    -0.730919056
 C        2.004300783    19.286238806    -1.940681321
 C        2.960443462    18.086451193    -0.026991854
 C        2.522462583    18.442168569    -3.116293214
 C        2.712157277    19.321368717    -4.363007603
 N        3.317625711    18.602376693    -5.496422260
 C        4.639161631    18.145070087    -5.347978877
 C        5.516389872    18.757151161    -4.427464998
 C        6.817625145    18.301016029    -4.286556567
 C        7.314941278    17.264530087    -5.088116008
 C        6.455176952    16.680649602    -6.022885887
 C        5.142065164    17.109505041    -6.160654915
 C        2.371847376    17.689296961    -6.161943796
 C        8.696786233    16.822662186    -4.896286967
 C        9.279897414    15.843843888    -5.601499888
Si       11.007300787    15.296807122    -5.356412596
 C       11.550389514    15.527227680    -3.613881785
 C       10.631608236    15.328407178    -2.576159949
 C       11.016609168    15.496236763    -1.247329981
 C       12.328805045    15.853564950    -0.923517115
 C       13.248261096    16.043996043    -1.962955220
 C       12.865704080    15.881346016    -3.292553983
 C       12.775190975    16.039786613     0.453293069
 C       11.993881519    15.887915073     1.536152679
 C       12.436117996    16.073105554     2.914207136
 C       13.744721563    16.434335850     3.244703280
 C       14.123860131    16.600608745     4.576727540
 C       13.198296182    16.414223976     5.608284279
 C       11.884935347    16.051988497     5.279274910
 C       11.510972556    15.881435447     3.949354412
Si       13.682413954    16.629727637     7.371406282
 C       15.331189305    17.487257274     7.531263587
 C       12.326415119    17.640701165     8.244635816
 C       13.797175507    14.922513636     8.205759684
 C       11.121273792    13.449362954    -5.794926761
 C       12.134172642    16.274907764    -6.536712522
 C       -5.096303899    12.683355282    -1.797925656
 C       -5.136822870    12.656395104     1.294172491
 C       -0.617220521    -0.922083969    -1.546224883
 C       -0.651986006    -0.906739416     1.542011152
 H        1.175630573     2.688705716    -0.619350105
 H        0.245132943     4.931869713    -0.609386545
 H       -3.581367706     3.385337784     0.610590039
 H       -2.692900734     1.121611640     0.612802091
 H       -3.382861333     5.687157605     0.306077784
 H       -0.617617020     6.767863686    -0.571425444
 H       -4.246621656     7.508333882     0.344786973
 H       -5.188547336     9.746303059     0.358536289
 H       -1.325877742    11.339864573    -0.863598398
 H       -0.429575202     9.075218782    -0.879826191
 H       -1.959611075    13.462100796     0.646656795
 H       -3.238615679    14.956328292    -1.778215300
 H       -2.169888647    16.870081197    -2.515902450
 H       -0.378612964    18.527820482    -2.407827818
 H        1.427196153    16.325734476     0.851120797
 H       -0.432761481    14.748981154     0.801402660
 H        3.725377770    18.876930369    -0.106703715
 H        3.392838174    17.147676306    -0.411283818
 H        2.738123634    17.964976940     1.048768176
 H        1.354489032    18.114230978    -6.146927258
 H        2.334640713    16.688351632    -5.700794123
 H        2.658033176    17.584071827    -7.224275202
 H        5.179032942    19.584752864    -3.810983979
 H        7.468709764    18.770886771    -3.547642989
 H        6.815890745    15.872356160    -6.660972678
 H        4.509779327    16.630483635    -6.901207015
 H        9.218982573    17.372310559    -4.099810861
 H        8.739362186    15.315148274    -6.400703113
 H        9.591144550    15.044732204    -2.768783284
 H       10.282130518    15.342330658    -0.459026421
 H       14.274885756    16.321958592    -1.732535907
 H       13.626941610    16.043056873    -4.060439144
 H       13.826565621    16.322013888     0.559856132
 H       10.942671983    15.604668561     1.427977883
 H       14.483038198    16.589147337     2.460045006
 H       15.161891297    16.883051280     4.773096648
 H       11.118707917    15.892913111     6.043310215
 H       10.487075274    15.597701725     3.713789122
 H        1.074312497    19.830236286    -2.224278694
 H        2.742197239    20.078288196    -1.676225230
 H        3.476852716    17.950615214    -2.844308912
 H        1.821210964    17.613389835    -3.333138335
 H        1.733886007    19.736175587    -4.697871878
 H        3.345427930    20.207980310    -4.129209257
 H        2.263078657    -1.029257250     0.053214756
 H        2.261013080     0.554089905     0.870692876
 H        2.275680934     0.467951264    -0.911909688
 H       15.594543108    17.649037224     8.591875629
 H       15.312379180    18.476898916     7.039682402
 H       16.144916121    16.898388784     7.072940636
 H       11.377879137    17.036778269     8.144752409
 C       12.591385198    17.856170296     9.745299869
 C       12.086890558    19.006573111     7.576169960
 H       14.157786547    15.119850610     9.256525865
 C       12.448059340    14.187210917     8.294859045
 C       14.817676983    13.998122680     7.516565562
 H       10.787454642    13.362879645    -6.869107820
 C       12.551219960    12.890985911    -5.691935725
 C       10.183660851    12.585520766    -4.932377243
 H       13.177605337    15.877539508    -6.375226264
 C       11.775671297    16.076305651    -8.020333199
 C       12.140020156    17.781866270    -6.223088233
 H       -5.406497195    13.768489869    -1.791109931
 C       -4.309368039    12.415994761    -3.094112984
 C       -6.374048538    11.825315596    -1.811109350
 H       -5.969279389    11.901960195     1.189266140
 C       -4.388422490    12.357477790     2.605464670
 C       -5.769713972    14.055902916     1.384303397
 H       -0.124313410    -1.936548228    -1.513406835
 C       -2.141682282    -1.133225902    -1.568255110
 C       -0.196606883    -0.229143731    -2.855233036
 H       -1.776561476    -0.914962970     1.444611255
 C       -0.177548614    -2.367362275     1.641789648
 C       -0.298599564    -0.174275689     2.849238560
 H       12.703653089    16.919078031    10.305878429
 H       11.744590823    18.388132607    10.203050784
 H       13.480390629    18.470768175     9.939546015
 H       11.839909238    18.929586259     6.507625988
 H       12.944477466    19.686107479     7.669024740
 H       11.236181610    19.515182166     8.051751881
 H       11.680762452    14.747468568     8.843897600
 H       12.574336200    13.235333802     8.831288528
 H       12.037327652    13.929203516     7.308511184
 H       15.833172551    14.413642280     7.487785522
 H       14.533787702    13.741630576     6.485695647
 H       14.891102450    13.045608767     8.060843010
 H       13.265603448    13.397489097    -6.353417977
 H       12.563013791    11.830490741    -5.982550673
 H       12.954485708    12.931955136    -4.669882094
 H        9.129574654    12.888460883    -4.995490471
 H       10.465051267    12.581019411    -3.869387917
 H       10.223920431    11.538396689    -5.264277346
 H       11.829796352    15.029670460    -8.345646309
 H       12.482101227    16.630901376    -8.654819512
 H       10.775341774    16.455406465    -8.272642562
 H       12.444291179    18.013565369    -5.193054950
 H       11.162078739    18.256238901    -6.391890489
 H       12.852032577    18.301824363    -6.879199938
 H       -3.395633240    13.018764725    -3.186698304
 H       -4.929044447    12.657003787    -3.969026687
 H       -4.018029903    11.361284807    -3.204348171
 H       -7.044426231    12.028682062    -0.966420726
 H       -6.165303354    10.746293456    -1.824040874
 H       -6.956409608    12.033494962    -2.720502415
 H       -3.944001265    11.352531689     2.633852223
 H       -5.083336253    12.409160031     3.455704820
 H       -3.588858825    13.080715078     2.816871176
 H       -6.391684339    14.309728111     0.516381831
 H       -5.024242705    14.855345291     1.504309372
 H       -6.428347964    14.115629286     2.262491151
 H       -2.514760683    -1.705492961    -0.709490460
 H       -2.428741669    -1.703416853    -2.463808702
 H       -2.702938547    -0.189254976    -1.614553298
 H        0.889758356    -0.110402167    -2.956956826
 H       -0.653087193     0.763603157    -2.978301690
 H       -0.522168273    -0.826197506    -3.719107791
 H       -0.453716870    -2.975117566     0.770502957
 H       -0.639515832    -2.853153078     2.513629124
 H        0.908039278    -2.456339973     1.781139537
 H       -0.657477399     0.864668784     2.875019606
 H        0.780195889    -0.156246475     3.053354636
 H       -0.766700015    -0.682083465     3.704494524

