187   

Si        0.000000000     0.000000000     0.000000000
 C        1.865428389     0.000000000     0.000000000
 C       -0.677685392     1.711680989     0.000000000
 C        0.147914108     2.816341200     0.231307744
 C       -0.378070051     4.108180391     0.228648120
 C       -1.739550061     4.324793081     0.001822796
 C       -2.566273387     3.216620851    -0.227128769
 C       -2.043698285     1.926421692    -0.228882262
 C       -2.333413542     5.657599386    -0.010023962
 C       -1.654190234     6.799657093     0.191058064
 C       -2.248189758     8.132413061     0.179183579
 C       -1.420637613     9.240729246     0.404264175
 C       -1.942341225    10.531838334     0.402314248
 C       -3.309685467    10.742361556     0.187890476
 C       -4.139148270     9.637970058    -0.035478790
 C       -3.610999440     8.347705151    -0.044197506
Si       -4.019141517    12.439252392     0.181355988
 C       -5.799772459    12.338167679     0.580252283
 C       -6.795598323    12.909358194    -0.108765323
 C       -8.209360211    12.795665271     0.256527309
 C       -9.168530935    13.438482456    -0.541754160
 C      -10.516901332    13.360808636    -0.238053511
 C      -10.951971148    12.603089278     0.869606753
 C       -9.995663557    11.963721438     1.673237349
 C       -8.642141548    12.080689135     1.374899637
 N      -12.341491713    12.558260061     1.134046310
 C      -13.181151277    12.100430286     0.001552033
 C      -12.742828934    11.977399981     2.425973588
 C      -12.555337885    11.035920000    -0.914698528
 C      -12.194554685     9.737361138    -0.171054601
 N      -11.250381881     8.885256562    -0.916412244
 C      -11.674506360     8.399082018    -2.165701548
 C      -13.038372005     8.106007982    -2.382761906
 C      -13.466565489     7.626580418    -3.609898811
 C      -12.558739387     7.370980393    -4.647327461
 C      -11.204417833     7.630633728    -4.419833986
 C      -10.760062508     8.128544244    -3.202166200
 C       -9.857490010     9.356271951    -0.823748304
 C      -13.065566559     6.865011026    -5.923873733
 C      -12.292382593     6.586452477    -6.981569553
Si      -12.871672437     5.954202715    -8.594941995
 C      -12.169364186     6.973829877    -9.955750760
 C      -11.654374703     8.249263075    -9.693949965
 C      -11.123061779     9.019812445   -10.725398244
 C      -11.102495462     8.540563228   -12.041519126
 C      -11.622875314     7.269016864   -12.299944697
 C      -12.151664648     6.493064490   -11.269678239
 C      -10.535331807     9.384938282   -13.087834072
 C      -10.451519054     9.043865849   -14.384930446
 C       -9.884483048     9.887842210   -15.431521621
 C       -9.363790088    11.158983309   -15.175810770
 C       -8.831054953    11.932270161   -16.207248702
 C       -8.802231291    11.446992485   -17.518323473
 C       -9.323422445    10.172030623   -17.777321455
 C       -9.859347358     9.404805143   -16.746880221
Si       -8.102738164    12.454648487   -18.890930004
 C       -7.139767238    13.916962954   -18.247374531
 C       -6.976019206    11.334037794   -19.938953593
 C       -9.517250321    13.091545443   -19.994120186
 C      -12.279586874     4.155959782    -8.789404078
 C      -14.770077855     5.987908963    -8.704409572
 C       -3.159436874    13.507024562     1.499714221
 C       -3.733347191    13.224345145    -1.526233081
 C       -0.659440209    -0.896744009    -1.544094206
 C       -0.608211713    -0.928278801     1.546454686
 H        1.220419916     2.710010836     0.416102193
 H        0.286816355     4.951193756     0.407605299
 H       -3.629756894     3.363262782    -0.406800301
 H       -2.736764286     1.101286578    -0.416340629
 H       -3.410582021     5.676602016    -0.200576212
 H       -0.577102973     6.780526476     0.381286509
 H       -0.356746737     9.094006268     0.580427681
 H       -1.248656141    11.358527704     0.577927130
 H       -5.214852502     9.745231567    -0.210768983
 H       -4.274786160     7.504020000    -0.224499576
 H       -6.003896156    11.746251272     1.488926216
 H       -6.627748287    13.511042278    -1.011201781
 H       -8.848851879    14.016446857    -1.409575886
 H      -11.247350332    13.889698647    -0.846219565
 H      -10.296204430    11.376795378     2.535646713
 H       -7.914798661    11.589274887     2.023489341
 H      -13.811600526    12.197541839     2.597492447
 H      -12.184261462    12.474172410     3.239847814
 H      -12.593631286    10.889627104     2.505687293
 H       -9.656266572     9.758458791     0.185553188
 H       -9.609292776    10.146802010    -1.551254792
 H       -9.175486490     8.499669690    -0.971823049
 H      -13.764284743     8.259564131    -1.590046541
 H      -14.528301814     7.430710431    -3.762333785
 H      -10.475263784     7.439836965    -5.209292527
 H       -9.699069642     8.315812454    -3.069019871
 H      -14.155854537     6.736476342    -5.934462238
 H      -11.198214932     6.717449861    -6.934255463
 H      -11.649414050     8.676803939    -8.685917994
 H      -10.722216684    10.006952577   -10.503062142
 H      -11.618725719     6.873351922   -13.313733531
 H      -12.542162997     5.505988761   -11.532016363
 H      -10.165199933    10.354763970   -12.742364765
 H      -10.821483029     8.074075452   -14.730231573
 H       -9.370579301    11.558417612   -14.163295615
 H       -8.439128587    12.919039718   -15.945546932
 H       -9.327093178     9.740596604   -18.782295681
 H      -10.260687168     8.417654665   -16.967946767
 H      -14.156216738    11.736573810     0.391603308
 H      -13.411156360    13.010617885    -0.604582918
 H      -13.251444497    10.810847554    -1.746593737
 H      -11.648870739    11.444497495    -1.406273937
 H      -11.733945899     9.967003537     0.817089331
 H      -13.109485555     9.145567645     0.053454597
 H        2.263319264    -1.029617082    -0.044082666
 H        2.274457581     0.475791725     0.908511616
 H        2.261945937     0.545989339    -0.875253426
 H       -6.684434450    14.489039394   -19.075464751
 H       -6.321057880    13.589823842   -17.580917273
 H       -7.781902223    14.611084970   -17.677430867
 H       -7.638857981    10.507540307   -20.328790566
 C       -6.353858237    12.049700838   -21.151156811
 C       -5.853819419    10.684804349   -19.108921751
 H       -9.026552796    13.748243495   -20.769466546
 C      -10.278345767    11.974067832   -20.729510508
 C      -10.532076204    13.948604296   -19.215345304
 H      -12.679988221     3.802676638    -9.783311990
 C      -10.745209943     4.042152249    -8.828519591
 C      -12.825311184     3.221189521    -7.695878941
 H      -15.142100523     5.438201654    -7.791696678
 C      -15.333822637     7.420302426    -8.666620904
 C      -15.325898803     5.272377797    -9.948586533
 H       -2.072849688    13.557345172     1.199093971
 C       -3.704255432    14.944884940     1.557761884
 C       -3.235245316    12.883660935     2.904842029
 H       -4.270300884    14.216673763    -1.506702646
 C       -2.248606332    13.492267809    -1.830600787
 C       -4.326754040    12.378275927    -2.667582810
 H       -1.784322149    -0.889893534    -1.448156658
 C       -0.294586636    -0.167465718    -2.849783580
 C       -0.204029693    -2.363386736    -1.644267351
 H       -0.101056491    -1.935872444     1.514355574
 C       -0.195881923    -0.227764612     2.854262540
 C       -2.129186152    -1.162194301     1.571755374
 H       -7.099533456    12.480717571   -21.831607162
 H       -5.769426848    11.335261316   -21.749087476
 H       -5.659038227    12.850579900   -20.865464699
 H       -6.227643086    10.104754336   -18.252936136
 H       -5.128438285    11.413297794   -18.723064988
 H       -5.283743122     9.980343458   -19.731212215
 H       -9.636968898    11.360923742   -21.375056654
 H      -11.044479093    12.411508608   -21.386264678
 H      -10.812273223    11.299899675   -20.045020383
 H      -10.081358156    14.820268044   -18.723646933
 H      -11.073602399    13.376846714   -18.447919205
 H      -11.295931086    14.343478662   -19.900450191
 H      -10.283437012     4.651380878    -9.618344646
 H      -10.449685858     3.002921540    -9.031100048
 H      -10.270902945     4.317180960    -7.876371039
 H      -13.921675182     3.183530058    -7.662219575
 H      -12.470749119     3.487605190    -6.689604070
 H      -12.487598407     2.190999130    -7.877879601
 H      -15.016366940     7.995220043    -7.785904380
 H      -16.432058541     7.393493610    -8.639216013
 H      -15.062189587     8.007502370    -9.555853169
 H      -15.043273674     4.213575968   -10.005689952
 H      -15.023790656     5.753417346   -10.889515043
 H      -16.425330036     5.294924300    -9.934362192
 H       -3.602982894    15.487679521     0.609090753
 H       -3.148573459    15.528101310     2.306131905
 H       -4.761480051    14.990912997     1.856105523
 H       -2.827260926    11.864111657     2.952477596
 H       -4.258241807    12.850929029     3.304086841
 H       -2.646865949    13.482554347     3.614741970
 H       -1.773313960    14.176050705    -1.115778502
 H       -2.147162638    13.964262155    -2.818885310
 H       -1.646563143    12.573292161    -1.869116654
 H       -5.399522487    12.172334263    -2.551935766
 H       -3.818316503    11.410551779    -2.788327780
 H       -4.214607648    12.905265171    -3.625649897
 H       -0.640437146     0.875917756    -2.875033841
 H       -0.768214951    -0.668030203    -3.706341545
 H        0.784534523    -0.163229363    -3.052477350
 H       -0.495280078    -2.969467495    -0.776698906
 H        0.881161134    -2.467102415    -1.775740369
 H       -0.666029443    -2.840411438    -2.520942351
 H        0.888892283    -0.094630910     2.955370666
 H       -0.513418030    -0.827742233     3.719137289
 H       -0.664786188     0.759313708     2.976032759
 H       -2.499414801    -1.722027680     0.703665077
 H       -2.703199267    -0.227515611     1.641329411
 H       -2.402629338    -1.754811460     2.457043131

