187   

Si        0.000000000     0.000000000     0.000000000
 C        1.865173833     0.000000000     0.000000000
 C       -0.675804594     1.712505001     0.000000000
 C        0.102866116     2.790679455    -0.433082905
 C       -0.414735263     4.085703758    -0.430728260
 C       -1.721227881     4.332080790    -0.000807250
 C       -2.501995811     3.250160460     0.427334960
 C       -1.988602935     1.956120203     0.425166129
 C       -2.304855482     5.669194456     0.019116755
 C       -1.667263218     6.788179217    -0.364526787
 C       -2.253545439     8.123898521    -0.343463419
 C       -1.476519712     9.207936972    -0.771775946
 C       -1.994400857    10.500830122    -0.769022888
 C       -3.303386543    10.738523460    -0.335298603
 C       -4.080191135     9.658421066     0.099698756
 C       -3.556842002     8.366340050     0.100391497
Si       -4.028188350    12.428377606    -0.314598897
 C       -5.755734088    12.313961219    -0.897203311
 C       -6.829309026    12.832598563    -0.288003702
 C       -8.195784216    12.712119697    -0.798207987
 C       -9.244055306    13.297062674    -0.074034756
 C      -10.554595279    13.211413257    -0.514115111
 C      -10.861170482    12.543250443    -1.719266614
 C       -9.813504799    11.934033637    -2.431231678
 C       -8.510364355    11.992502778    -1.953736950
 N      -12.204204148    12.470551770    -2.144622971
 C      -13.018301771    13.686544793    -1.931902820
 C      -12.443957545    11.829690621    -3.448447765
 C      -12.378567864    15.006819600    -2.403118824
 C      -12.633016913    15.316135715    -3.891632605
 N      -11.460514179    15.852823386    -4.622309891
 C      -10.463255031    14.850336043    -4.841920503
 C      -10.746857211    13.902658570    -5.841441886
 C       -9.835249017    12.896951765    -6.119135756
 C       -8.620283768    12.814096173    -5.421813551
 C       -8.336041560    13.774592473    -4.447890892
 C       -9.237471613    14.798187599    -4.169172334
 C      -10.958377832    17.113391999    -4.048291824
 C       -7.699799903    11.727379402    -5.762663353
 C       -6.509508408    11.524902704    -5.182469020
Si       -5.396571653    10.146263056    -5.649514617
 C       -6.357984301     8.693487595    -6.240117897
 C       -7.595969756     8.404096940    -5.652510756
 C       -8.344503762     7.309968588    -6.080823433
 C       -7.869488196     6.472819620    -7.094720896
 C       -6.627380609     6.759315926    -7.675197676
 C       -5.878472077     7.855632208    -7.252631175
 C       -8.619087196     5.316591621    -7.574469862
 C       -9.818193126     4.933819103    -7.103731469
 C      -10.568623016     3.777859023    -7.582704198
 C      -10.098710858     2.942245919    -8.599169746
 C      -10.849371898     1.847194407    -9.026574578
 C      -12.092694998     1.568498441    -8.450442827
 C      -12.566826201     2.405557815    -7.431240604
 C      -11.812120804     3.493740321    -7.002073858
Si      -13.094927791     0.127143535    -9.003782483
 C      -12.469082558    -0.564117404   -10.619352612
 C      -13.018630455    -1.239768427    -7.681271209
 C      -14.904547816     0.689167841    -9.186641310
 C       -4.153118686    10.747560170    -6.949698055
 C       -4.470293869     9.606021581    -4.075919799
 C       -3.922620424    13.126555762     1.449874100
 C       -3.084732094    13.599299602    -1.481401446
 C       -0.625253737    -0.909926246    -1.550298409
 C       -0.651728104    -0.916459123     1.536258432
 H        1.131843147     2.660458116    -0.779328657
 H        0.212778082     4.907686098    -0.770283420
 H       -3.523228320     3.419747276     0.763988176
 H       -2.645857916     1.151928740     0.767661871
 H       -3.337698979     5.711801992     0.378282367
 H       -0.635602650     6.745932525    -0.724956545
 H       -0.456973189     9.040912336    -1.113344478
 H       -1.341882799    11.307223982    -1.114013680
 H       -5.110755180     9.787816261     0.448735647
 H       -4.177688860     7.542203189     0.447683783
 H       -5.853092615    11.756528510    -1.845755861
 H       -6.766651152    13.396621686     0.651118523
 H       -9.029065776    13.830985979     0.851690638
 H      -11.349411492    13.653653788     0.079291094
 H      -10.002476754    11.411143482    -3.365756841
 H       -7.722175707    11.486086310    -2.517227916
 H      -13.525082128    11.803354575    -3.659644995
 H      -12.101162858    10.779502673    -3.400981184
 H      -11.933220526    12.330330761    -4.289750027
 H      -11.768171787    17.862328860    -4.087202844
 H      -10.131829440    17.489905628    -4.676756228
 H      -10.603966642    17.040186584    -3.008948796
 H      -11.677980569    13.977790270    -6.399803302
 H      -10.063572022    12.167485828    -6.896724370
 H       -7.395939448    13.734180945    -3.894568181
 H       -8.991747439    15.532337737    -3.406898139
 H       -8.091005158    11.070917988    -6.554170430
 H       -6.126229933    12.198657523    -4.401535490
 H       -8.015874121     9.020255283    -4.849176115
 H       -9.306397506     7.108675647    -5.612904720
 H       -6.238976242     6.119348728    -8.465036584
 H       -4.916262339     8.028507526    -7.741974216
 H       -8.129197863     4.753004512    -8.373925824
 H      -10.307167067     5.496639516    -6.303266992
 H       -9.136178261     3.140119928    -9.067429914
 H      -10.428543583     1.229114505    -9.824458910
 H      -13.531432938     2.236873707    -6.944314256
 H      -12.195834951     4.130659446    -6.207393170
 H      -14.010292617    13.543550044    -2.412474581
 H      -13.224890180    13.746553595    -0.835951235
 H      -12.755051564    15.837666514    -1.779504298
 H      -11.285409426    14.975660725    -2.209013165
 H      -12.978186369    14.404076578    -4.426984469
 H      -13.452440818    16.061449516    -3.995419080
 H        2.262987307    -1.029569027     0.044834885
 H        2.259875635     0.547238965     0.875482532
 H        2.276250839     0.475775810    -0.907371243
 H      -13.099097731    -1.403656169   -10.963561255
 H      -11.434579073    -0.939554182   -10.531039390
 H      -12.481969422     0.206637614   -11.411330565
 H      -13.604899976    -2.106122412    -8.104229823
 C      -11.581311662    -1.722146167    -7.412762625
 C      -13.662368267    -0.838094383    -6.342085391
 H      -15.223856511     1.041914370    -8.162921858
 C      -15.059221748     1.870933869   -10.160974351
 C      -15.858234075    -0.440829195    -9.613482538
 H       -3.474885799     9.870926314    -7.162759436
 C       -4.834429040    11.155953127    -8.268193113
 C       -3.277293071    11.914316868    -6.457511581
 H       -4.038853079    10.546674954    -3.625961076
 C       -5.420717831     8.971000621    -3.045982282
 C       -3.308154220     8.634913017    -4.341068379
 H       -4.464703918    14.115958146     1.426508935
 C       -4.616544720    12.225217602     2.487316847
 C       -2.476903604    13.386422845     1.909983062
 H       -2.025374342    13.633161613    -1.095263456
 C       -3.046911857    13.103320598    -2.937751366
 C       -3.644703574    15.033418150    -1.463754106
 H       -0.150532806    -1.932862866    -1.518514816
 C       -2.153389507    -1.092783300    -1.575302593
 C       -0.188915925    -0.221215015    -2.856370402
 H       -1.776321184    -0.926081155     1.438114089
 C       -0.176275798    -2.377573357     1.626331870
 C       -0.299391714    -0.192892817     2.848610565
 H      -11.075570975    -2.106271052    -8.307925379
 H      -11.590279647    -2.548102239    -6.687168115
 H      -10.942183384    -0.939186979    -6.979450412
 H      -14.722540790    -0.569605062    -6.431623863
 H      -13.142171677    -0.003028525    -5.851772268
 H      -13.618541060    -1.681026382    -5.636974680
 H      -14.445459765     2.741385755    -9.887988044
 H      -16.101519790     2.220246691   -10.167843429
 H      -14.815034521     1.606794435   -11.198443544
 H      -15.857429373    -1.294451661    -8.923396850
 H      -15.644670819    -0.824190218   -10.620043085
 H      -16.892776870    -0.068661152    -9.640161840
 H       -5.434450876    10.352998128    -8.717876582
 H       -4.077533261    11.429292056    -9.016634928
 H       -5.488510841    12.033000551    -8.157320944
 H       -2.697514873    11.672806112    -5.556627092
 H       -3.856199773    12.825545860    -6.252043709
 H       -2.544113677    12.185380836    -7.230408812
 H       -6.249455094     9.625362858    -2.745909247
 H       -4.864707352     8.735790219    -2.124176924
 H       -5.851119685     8.019465842    -3.388344471
 H       -2.534201008     9.046811714    -4.999302613
 H       -3.636180710     7.675800530    -4.764227982
 H       -2.805091765     8.390380687    -3.391250100
 H       -5.672232849    12.024627286     2.259233376
 H       -4.600497242    12.706246432     3.475521817
 H       -4.114837177    11.254435170     2.610878704
 H       -1.941775978    14.108321385     1.280072441
 H       -1.871330435    12.470234586     1.958517096
 H       -2.475301415    13.807006886     2.926193315
 H       -2.631599739    12.091345362    -3.043954904
 H       -2.407563942    13.761259217    -3.543446350
 H       -4.037315559    13.113309096    -3.415323540
 H       -3.613415889    15.501565472    -0.471811249
 H       -4.680802034    15.093342089    -1.827824905
 H       -3.048004398    15.679127372    -2.123643492
 H       -2.536928083    -1.669847047    -0.724425758
 H       -2.450963933    -1.645060317    -2.478632195
 H       -2.697801503    -0.138159220    -1.608254477
 H        0.899743359    -0.125757964    -2.956852505
 H       -0.624475769     0.781348831    -2.976345805
 H       -0.526752507    -0.808036563    -3.722636567
 H       -0.455370580    -2.980269058     0.752427994
 H       -0.635443937    -2.868436118     2.496793030
 H        0.909697301    -2.467249466     1.761667892
 H       -0.656030827     0.846592554     2.880697563
 H        0.779177057    -0.178288271     3.054350958
 H       -0.769563852    -0.705391958     3.699930953

