187   

Si        0.000000000     0.000000000     0.000000000
 C        1.865370602     0.000000000     0.000000000
 C       -0.688061964     1.707085146     0.000000000
 C        0.128202246     2.820483918    -0.221500785
 C       -0.410719740     4.107264604    -0.217951792
 C       -1.775656647     4.309371827     0.001055196
 C       -2.592873089     3.192091316     0.220790400
 C       -2.057679131     1.907334186     0.221183101
 C       -2.385438668     5.634744197     0.014043344
 C       -1.722262286     6.787664889    -0.178319075
 C       -2.340252384     8.109633741    -0.163696596
 C       -1.534092324     9.234962718    -0.378559977
 C       -2.081691283    10.515842543    -0.373125076
 C       -3.449293780    10.701965430    -0.139795495
 C       -4.256539950     9.578770225     0.075679703
 C       -3.707601063     8.297884563     0.058078469
Si       -4.204148263    12.379756724    -0.125893828
 C       -5.610765484    12.484261290     1.037297125
 C       -5.715752063    11.758314977     2.158758121
 C       -6.840997847    11.840959139     3.090619130
 C       -6.835334173    11.027158110     4.232869273
 C       -7.875567780    11.066581522     5.146468931
 C       -8.950029379    11.965052388     4.968807953
 C       -8.957131960    12.780830474     3.821546978
 C       -7.927681312    12.696576206     2.892749500
 N       -9.999346744    11.993120984     5.905679547
 C       -9.641317213    11.752852354     7.315737159
 C      -11.008763535    13.053448084     5.743617250
 C       -8.665452219    12.802162619     7.878642307
 C       -8.619349039    12.820701131     9.415349989
 N       -9.900778760    13.114311837    10.101215172
 C      -10.753524997    14.012654714     9.416513782
 C      -10.234298411    15.278182042     9.071078798
 C      -11.024954342    16.195733496     8.400641472
 C      -12.358819501    15.901199978     8.077578079
 C      -12.875618567    14.657314447     8.445065393
 C      -12.093660623    13.723731187     9.116856096
 C      -10.537807779    11.916956651    10.674423573
 C      -13.153041592    16.906272613     7.367550675
 C      -14.431623816    16.729171183     7.011732128
Si      -15.481291645    17.935405064     6.126883717
 C      -16.277791013    17.087317666     4.701956609
 C      -15.647423739    15.984113564     4.111824357
 C      -16.236736291    15.330967981     3.032705513
 C      -17.460329997    15.770048137     2.509928527
 C      -18.082222056    16.875685490     3.097022475
 C      -17.497768713    17.529527761     4.181255517
 C      -18.037302732    15.052041154     1.378254279
 C      -19.202854651    15.364519511     0.786914544
 C      -19.778773452    14.645623497    -0.344808023
 C      -19.156763328    13.540500478    -0.931317195
 C      -19.743002026    12.882494665    -2.012399330
 C      -20.970328556    13.312414672    -2.526344654
 C      -21.597103190    14.419877219    -1.938922227
 C      -21.006683696    15.078075774    -0.863710309
Si      -21.757451094    12.455036088    -3.952612746
 C      -20.932907998    10.820736799    -4.311482795
 C      -23.597706563    12.188465991    -3.545297554
 C      -21.632881552    13.553552345    -5.502157943
 C      -16.807889327    18.586283536     7.323882276
 C      -14.462020399    19.404909385     5.482789661
 C       -2.905527014    13.682600289     0.359622391
 C       -4.841798035    12.774898285    -1.874152079
 C       -0.601688740    -0.929949625    -1.548576277
 C       -0.657334114    -0.902134451     1.542098884
 H        1.202782528     2.724790597    -0.399333481
 H        0.246197467     4.957731921    -0.390556963
 H       -3.658868182     3.327743150     0.393898141
 H       -2.743869816     1.074831018     0.401146892
 H       -3.464244041     5.638450942     0.197614103
 H       -0.644276157     6.786878502    -0.362416052
 H       -0.467537847     9.110377299    -0.554322788
 H       -1.404335978    11.354928754    -0.552871834
 H       -5.333195500     9.664663337     0.260154370
 H       -4.357463477     7.440475525     0.223823066
 H       -6.382907058    13.216379573     0.756888549
 H       -4.953745773    11.027446758     2.465851944
 H       -6.003700199    10.341676469     4.401900929
 H       -7.857698621    10.399070819     6.002867621
 H       -9.767104789    13.480792448     3.642451875
 H       -7.966544278    13.327432371     2.003551218
 H      -11.762526555    12.986953090     6.548876193
 H      -11.542656708    12.901809456     4.788336240
 H      -10.588622561    14.072644418     5.766201111
 H       -9.821490648    11.427586251    11.358303278
 H      -10.872928845    11.176748968     9.931800744
 H      -11.403311289    12.220997215    11.290331051
 H       -9.210650427    15.529145151     9.340322026
 H      -10.606346745    17.166235728     8.131937681
 H      -13.911776133    14.406402374     8.211280117
 H      -12.531290317    12.767890093     9.387948123
 H      -12.595782100    17.826673456     7.151694536
 H      -14.964664935    15.793475979     7.253196635
 H      -14.688318688    15.600448862     4.475718701
 H      -15.737433456    14.470695193     2.590554859
 H      -19.033199099    17.236575633     2.709757366
 H      -18.030896449    18.387421861     4.599772110
 H      -17.441607324    14.206547372     1.021431871
 H      -19.799242548    16.209503218     1.143221709
 H      -18.202894902    13.182977331    -0.547618800
 H      -19.208307870    12.024635333    -2.429642772
 H      -22.557836463    14.799971793    -2.297649793
 H      -21.508067797    15.936880202    -0.421529567
 H      -10.585539154    11.738213470     7.906350777
 H       -9.212398638    10.730409101     7.406487094
 H       -7.647543558    12.617034131     7.481996603
 H       -8.940516847    13.806008042     7.495662301
 H       -8.214270357    11.856844872     9.792387995
 H       -7.900400787    13.609201270     9.747089371
 H        2.262613465    -1.030119549     0.037015593
 H        2.262650427     0.540237787     0.878424744
 H        2.274002203     0.481807102    -0.905552018
 H      -21.439570102    10.292650053    -5.138973002
 H      -20.964126821    10.158322139    -3.427357164
 H      -19.874737215    10.950503313    -4.598750058
 H      -24.031894979    13.218648487    -3.388473247
 C      -24.386466132    11.512819276    -4.680990525
 C      -23.803673657    11.388235055    -2.246431144
 H      -22.072126576    12.942866198    -6.343255941
 C      -22.432687076    14.864341283    -5.397499498
 C      -20.176388596    13.892868395    -5.868680692
 H      -17.415971815    19.334117290     6.736839348
 C      -17.758475056    17.478425222     7.811432976
 C      -16.213094992    19.310495289     8.544482185
 H      -13.915284628    19.821284922     6.377924712
 C      -13.415856077    18.979532673     4.436013468
 C      -15.327993656    20.529180042     4.887221606
 H       -2.091368066    13.618881278    -0.418667630
 C       -3.456848000    15.119703120     0.352046784
 C       -2.277928796    13.396268797     1.735704816
 H       -5.283201757    13.811569240    -1.818392705
 C       -3.728835690    12.784836137    -2.936396992
 C       -5.951591755    11.806501663    -2.321350201
 H       -0.088170090    -1.934292945    -1.517074488
 C       -2.121004139    -1.174067199    -1.576278070
 C       -0.192566210    -0.224970736    -2.854929087
 H       -1.781968893    -0.901678931     1.443927940
 C       -0.193610183    -2.366311020     1.641453040
 C       -0.299108646    -0.172375571     2.849394316
 H      -24.344609270    12.065380884    -5.628506292
 H      -25.450533785    11.446859434    -4.410849201
 H      -24.056407217    10.484338222    -4.878694488
 H      -23.311912110    11.842602435    -1.374295995
 H      -23.452010702    10.350670619    -2.320949094
 H      -24.874157699    11.335193224    -2.001903067
 H      -23.503355455    14.708950067    -5.214254730
 H      -22.361940107    15.422991957    -6.342298957
 H      -22.049849795    15.536170826    -4.616355355
 H      -19.551865634    13.007019299    -6.041876827
 H      -19.676656051    14.508333043    -5.106716215
 H      -20.148351998    14.474971908    -6.801001598
 H      -18.253578775    16.936602782     6.993304065
 H      -18.562853693    17.913877935     8.421435624
 H      -17.258646674    16.734745555     8.447233426
 H      -15.588062616    20.172530680     8.277978640
 H      -15.611811426    18.648581500     9.184195499
 H      -17.020458144    19.701371551     9.180319296
 H      -12.726995978    18.201560944     4.792220040
 H      -12.792204179    19.839903156     4.155009086
 H      -13.871370714    18.613257987     3.504492392
 H      -16.033982014    20.963339287     5.606631855
 H      -15.900936045    20.207766379     4.005843940
 H      -14.688000579    21.357265651     4.549031257
 H       -3.851090028    15.430074932    -0.623920161
 H       -2.655202890    15.830682021     0.598792321
 H       -4.247247303    15.277774845     1.099259172
 H       -1.808346679    12.405168640     1.804224351
 H       -3.002535826    13.474955283     2.559311391
 H       -1.486479143    14.127911613     1.950013467
 H       -2.941280511    13.522286190    -2.735912673
 H       -4.148964415    13.044216941    -3.918953828
 H       -3.246283558    11.804607329    -3.059737379
 H       -6.813378230    11.785793418    -1.640182579
 H       -5.595255475    10.772685661    -2.437030634
 H       -6.342065166    12.107836698    -3.303609096
 H       -2.488401244    -1.738988089    -0.710338559
 H       -2.389262893    -1.765770732    -2.463755166
 H       -2.701223952    -0.243086014    -1.643998927
 H        0.891323776    -0.083679949    -2.954319758
 H       -0.668495937     0.758879579    -2.976018322
 H       -0.504434461    -0.825994187    -3.721078423
 H       -0.475521727    -2.971814741     0.770411274
 H       -0.658270815    -2.848480916     2.513838601
 H        0.891386786    -2.463470718     1.779403352
 H       -0.650461446     0.869140622     2.874898753
 H        0.779592905    -0.162664985     3.054185841
 H       -0.771911032    -0.676498121     3.704265143

