187   

Si        0.000000000     0.000000000     0.000000000
 C        1.865108998     0.000000000     0.000000000
 C       -0.672636061     1.713983394     0.000000000
 C        0.075737567     2.771682678    -0.527622793
 C       -0.432965596     4.070136482    -0.528013872
 C       -1.701991790     4.340327955    -0.008872491
 C       -2.453279207     3.278754010     0.512489854
 C       -1.947999105     1.981322501     0.514256711
 C       -2.275031358     5.682107074     0.011865344
 C       -1.662474001     6.783546736    -0.454526205
 C       -2.236309693     8.125043617    -0.433383549
 C       -3.506256051     8.392603971     0.086629511
 C       -4.016697262     9.689645132     0.087261744
 C       -3.263223520    10.749515158    -0.429748554
 C       -1.991821349    10.485436956    -0.952915656
 C       -1.487780413     9.186949706    -0.957199286
Si       -3.937511144    12.459823493    -0.428380764
 C       -2.588002600    13.668080334    -0.680357464
 C       -2.588817143    14.662906704    -1.576584152
 C       -1.487525230    15.613140434    -1.749992522
 C       -1.610396704    16.613643259    -2.726934816
 C       -0.599150250    17.537079698    -2.931991487
 C        0.561185020    17.506141568    -2.131315814
 C        0.690080415    16.505736227    -1.157052442
 C       -0.317342085    15.561003347    -0.989424896
 N        1.556036023    18.480909518    -2.396034323
 C        1.126540128    19.881409359    -2.207678118
 C        2.897684822    18.195427258    -1.866236317
 C        1.297916152    20.467791727    -0.795300770
 C        0.420999241    19.808768214     0.285877996
 N       -1.002002891    20.180901766     0.266771548
 C       -1.331363978    21.540475661     0.240087932
 C       -0.519154514    22.471819221     0.925881052
 C       -0.832466963    23.820723155     0.908540799
 C       -1.980566278    24.292517073     0.256040452
 C       -2.798741787    23.365737807    -0.396235932
 C       -2.492564577    22.011891064    -0.404322682
 C       -1.870804859    19.252780849    -0.466988097
 C       -2.265387352    25.728071660     0.267849055
 C       -3.331085319    26.285133104    -0.322127752
Si       -3.742658482    28.064768081    -0.343893371
 C       -5.493683595    28.294476274     0.171624238
 C       -6.110972737    27.342013065     0.992293118
 C       -7.435845309    27.506388469     1.388176486
 C       -8.171051596    28.628626491     0.984431317
 C       -7.549290432    29.580313437     0.171027351
 C       -6.224242801    29.417188707    -0.231069629
 C       -9.556185839    28.755597784     1.425459549
 C      -10.371041137    29.775902861     1.107958628
 C      -11.756075078    29.901283820     1.549919636
 C      -12.377043560    28.949660827     2.362987857
 C      -13.703941268    29.109252401     2.762313520
 C      -14.442177185    30.222801568     2.349555648
 C      -13.822123503    31.177913721     1.532471698
 C      -12.495966962    31.018845588     1.140406721
Si      -16.194125271    30.448264362     2.867660813
 C      -16.894720980    28.888817661     3.613835785
 C      -16.299683268    31.844586744     4.157228331
 C      -17.207529740    30.958504690     1.339014385
 C       -2.618736601    29.053873333     0.828442570
 C       -3.503480944    28.719604527    -2.114884523
 C       -5.256624943    12.614296753    -1.789506670
 C       -4.750248535    12.816081639     1.254776831
 C       -0.629152541    -0.904886996    -1.551702583
 C       -0.648217807    -0.924120048     1.533353406
 H        1.074641994     2.622549131    -0.947024920
 H        0.171216871     4.876144983    -0.940518337
 H       -3.444567234     3.466871608     0.920535289
 H       -2.581398100     1.194003787     0.932215435
 H       -3.276541559     5.744560511     0.447744273
 H       -0.661288766     6.721011591    -0.890967727
 H       -4.109231519     7.584773169     0.497055300
 H       -5.015689968     9.837712601     0.506810350
 H       -1.361957340    11.275485956    -1.374247891
 H       -0.499027930     8.998860399    -1.371577378
 H       -1.734873626    13.517579224     0.002459394
 H       -3.425438309    14.843055359    -2.264373551
 H       -2.507484348    16.657061810    -3.345492248
 H       -0.686846602    18.282455075    -3.720240215
 H        1.576554828    16.452590525    -0.532153908
 H       -0.190528797    14.780958489    -0.237054674
 H        3.608042879    18.933220521    -2.278901507
 H        3.220554630    17.200061134    -2.221481943
 H        2.970266515    18.217257532    -0.767806122
 H       -1.531057962    18.211178671    -0.315178945
 H       -1.902751202    19.442070131    -1.552591336
 H       -2.896836784    19.314030120    -0.059682619
 H        0.354730656    22.132421164     1.473267706
 H       -0.180416250    24.524326811     1.427138308
 H       -3.699198130    23.705433911    -0.911289692
 H       -3.153070543    21.328128823    -0.927179131
 H       -1.515565366    26.313373458     0.815772847
 H       -4.062873055    25.667732390    -0.869889247
 H       -5.583522242    26.447353820     1.340288048
 H       -7.901820498    26.753468165     2.021123480
 H       -8.098705827    30.460772701    -0.156387473
 H       -5.791817204    30.193377100    -0.868098078
 H       -9.911181565    27.936576086     2.058249961
 H      -10.016967798    30.594938024     0.475267619
 H      -11.826046020    28.071336130     2.694470144
 H      -14.134662573    28.331863832     3.399419070
 H      -14.350008143    32.067709861     1.177944319
 H      -12.031535119    31.771724364     0.506419992
 H        1.724585475    20.490963168    -2.927887202
 H        0.064923426    19.985604302    -2.525078810
 H        2.357669539    20.405170236    -0.485036349
 H        1.074759217    21.555121633    -0.843166338
 H        0.501865589    18.699551044     0.217831623
 H        0.818787374    20.077037632     1.294858473
 H        2.263230850    -1.029186192     0.050260265
 H        2.258991660     0.552126668     0.872923095
 H        2.276823665     0.471741567    -0.909135869
 H      -17.957793682    29.019629140     3.884169400
 H      -16.352747846    28.593899096     4.529464446
 H      -16.835267135    28.046943989     2.900318905
 H      -17.382666855    31.888213708     4.470876596
 C      -15.451150883    31.556119820     5.409269780
 C      -15.908148911    33.226533870     3.604229818
 H      -16.754538569    31.927040293     0.977005138
 C      -17.103262489    29.934069286     0.194706190
 C      -18.693079346    31.218458488     1.645693507
 H       -1.560084428    28.798994608     0.532880608
 C       -2.795945116    30.577376879     0.700379739
 C       -2.814431514    28.655895813     2.303002871
 H       -3.741165966    29.821769681    -2.075015446
 C       -2.059468243    28.562553093    -2.623209278
 C       -4.464091046    28.061980514    -3.121588209
 H       -5.552116748    13.703210329    -1.811736915
 C       -4.710847628    12.235944224    -3.178694238
 C       -6.522905012    11.784269536    -1.514467522
 H       -5.597063600    12.076854109     1.353730646
 C       -3.786082469    12.593475407     2.433463505
 C       -5.340629784    14.233834241     1.348871624
 H       -0.163503182    -1.931883632    -1.520100833
 C       -2.158981134    -1.074012155    -1.576611131
 C       -0.186208034    -0.219721599    -2.857300910
 H       -1.773363129    -0.925643061     1.442634390
 C       -0.182359916    -2.389240392     1.608587693
 C       -0.281392351    -0.214288193     2.849239409
 H      -15.723093631    30.620782242     5.915103723
 H      -15.588178278    32.356831757     6.150148104
 H      -14.373387965    31.516983368     5.194702185
 H      -16.526819568    33.548401789     2.757058586
 H      -14.855203880    33.279051499     3.293263147
 H      -16.034512953    33.992077986     4.383783161
 H      -16.067826658    29.737355555    -0.118476124
 H      -17.627079945    30.308914152    -0.696124961
 H      -17.563499812    28.967780544     0.439967190
 H      -18.850982131    31.993599528     2.406698315
 H      -19.227430406    30.316158887     1.971342707
 H      -19.207488123    31.569053246     0.739076839
 H       -2.569898461    30.959585144    -0.303124141
 H       -2.109440920    31.094444842     1.386540646
 H       -3.806945991    30.915053324     0.969167891
 H       -2.666206289    27.583897236     2.492573845
 H       -3.810090758    28.921867465     2.686792864
 H       -2.089090400    29.185130571     2.936641072
 H       -1.320064881    29.083363070    -2.001284130
 H       -1.966894865    28.988088865    -3.632536250
 H       -1.746049288    27.511662569    -2.702647987
 H       -5.523070351    28.167646887    -2.846606865
 H       -4.264458967    26.991351514    -3.266589780
 H       -4.355196037    28.532196052    -4.109147174
 H       -3.823543485    12.811384982    -3.475831923
 H       -5.472967072    12.424034758    -3.947984796
 H       -4.450782542    11.170211395    -3.257789038
 H       -7.031594074    12.059929404    -0.581996748
 H       -6.328513440    10.702795661    -1.486187206
 H       -7.255764321    11.940207450    -2.319732732
 H       -3.354299482    11.582829977     2.458127073
 H       -4.320269807    12.721053852     3.385945262
 H       -2.954399450    13.310986817     2.448868962
 H       -6.103935583    14.439341374     0.587395872
 H       -4.577130653    15.021818435     1.276539454
 H       -5.833402018    14.372297824     2.322050595
 H       -2.547410409    -1.648838754    -0.726365504
 H       -2.461813531    -1.622241776    -2.480576826
 H       -2.694864462    -0.114588107    -1.607138502
 H        0.903337437    -0.132790227    -2.956561935
 H       -0.614048206     0.785968848    -2.978141601
 H       -0.527348420    -0.804363441    -3.723769351
 H       -0.470301981    -2.982840677     0.731333599
 H       -0.640274125    -2.884158651     2.477437985
 H        0.903693605    -2.487599471     1.737270545
 H       -0.626621831     0.828573490     2.891985145
 H        0.798532517    -0.212435648     3.048779461
 H       -0.751656693    -0.728850217     3.699277577

