187   

Si        0.000000000     0.000000000     0.000000000
 C        1.865745175     0.000000000     0.000000000
 C       -0.660803800     1.718401256     0.000000000
 C        0.128209484     2.802841685     0.396307631
 C       -0.390558703     4.098334722     0.389541021
 C       -1.708969306     4.335689785    -0.005696059
 C       -2.499632900     3.247018316    -0.399032130
 C       -1.984072607     1.954801880    -0.396770027
 C       -2.303148486     5.667029149    -0.032313846
 C       -1.677786176     6.806231614     0.310059032
 C       -2.304310272     8.124317700     0.271384222
 C       -1.559198738     9.248046158     0.650408807
 C       -2.125051138    10.521551013     0.625757344
 C       -3.450280859    10.701512525     0.213971209
 C       -4.197497801     9.578928702    -0.163247226
 C       -3.631521430     8.306653735    -0.129026534
Si       -4.246066846    12.360328586     0.162604794
 C       -5.498082208    12.458676405    -1.167935126
 C       -5.430041067    11.763331082    -2.311351024
 C       -6.424368991    11.833333698    -3.382319328
 C       -6.234653972    11.052121493    -4.530880705
 C       -7.143531020    11.078535952    -5.576011013
 C       -8.330638425    11.836072305    -5.472775160
 C       -8.527783901    12.610982093    -4.312891814
 C       -7.574173694    12.623209403    -3.302981319
 N       -9.253296577    11.863272703    -6.532969853
 C       -9.262271517    10.717136993    -7.460767247
 C      -10.595927164    12.385206048    -6.230913446
 C       -9.462159568     9.341693024    -6.800488051
 C      -10.935905324     8.923549342    -6.657125274
 N      -11.496795640     8.190457257    -7.807363175
 C      -10.825703145     7.028510796    -8.227650483
 C      -10.029508706     6.295380387    -7.320804424
 C       -9.368178198     5.150625274    -7.734348297
 C       -9.533166495     4.643990797    -9.031136036
 C      -10.352475539     5.348470535    -9.916888825
 C      -10.990445411     6.520586831    -9.531186925
 C      -12.022368593     9.069456968    -8.864644789
 C       -8.807565938     3.431065299    -9.408741394
 C       -8.878000425     2.846822553   -10.612571797
Si       -7.957135396     1.328300327   -11.055018976
 C       -6.376581718     1.224758979   -10.117632500
 C       -5.703019369     2.411617434    -9.802163896
 C       -4.504213910     2.379472750    -9.094348274
 C       -3.939798658     1.162926318    -8.697817742
 C       -4.609217572    -0.023130687    -9.023287346
 C       -5.812199949     0.005552840    -9.727176518
 C       -2.684693682     1.095410647    -7.954977427
 C       -1.967602114     2.173567197    -7.595195999
 C       -0.711968016     2.146757301    -6.854400090
 C       -0.104560438     0.963610212    -6.428317029
 C        1.098614358     0.995983697    -5.721831452
 C        1.714493419     2.214504250    -5.420587245
 C        1.104735970     3.403165845    -5.845310241
 C       -0.091860417     3.367643070    -6.553740001
Si        3.301410319     2.289377966    -4.490390848
 C        3.660731426     0.667813912    -3.640229178
 C        4.726323722     2.697287662    -5.682259561
 C        3.164858640     3.694592725    -3.210423076
 C       -9.040396032    -0.191629291   -10.691759945
 C       -7.571178825     1.375225190   -12.916500762
 C       -5.110060186    12.679472498     1.826524436
 C       -2.934203801    13.708820063    -0.115565945
 C       -0.661118754    -0.888580674    -1.550147133
 C       -0.629441535    -0.927008864     1.536348884
 H        1.165335684     2.677346159     0.719016281
 H        0.243506418     4.926304817     0.699751941
 H       -3.528689565     3.411583250    -0.713092442
 H       -2.647783715     1.146324125    -0.716985426
 H       -3.346057168     5.689085695    -0.365977163
 H       -0.637536267     6.796975608     0.644200328
 H       -0.525769379     9.128578394     0.969089541
 H       -1.496318207    11.360429821     0.935415733
 H       -5.240913052     9.657142565    -0.488757796
 H       -4.236625842     7.450718878    -0.423202821
 H       -6.325153560    13.156912238    -0.972467555
 H       -4.606200802    11.069259148    -2.534329398
 H       -5.344452757    10.426529903    -4.616088349
 H       -6.932956413    10.502424271    -6.472551455
 H       -9.418437546    13.219288281    -4.197080754
 H       -7.741959753    13.250591356    -2.426286010
 H      -11.241970207    12.316895907    -7.121171386
 H      -10.517468271    13.459797627    -5.980208311
 H      -11.091093278    11.862381761    -5.396380533
 H      -12.477053605     9.970777183    -8.422578291
 H      -12.830831716     8.540671109    -9.403623299
 H      -11.257568011     9.383350230    -9.593681932
 H       -9.919672998     6.625555280    -6.291699372
 H       -8.726214239     4.622526722    -7.026913836
 H      -10.497679490     4.977818704   -10.932563673
 H      -11.614964547     7.036413565   -10.252843537
 H       -8.180314126     3.036351589    -8.595308291
 H       -9.521050426     3.249291810   -11.408412376
 H       -6.090094913     3.394990518   -10.092181941
 H       -4.005912004     3.317550664    -8.855138314
 H       -4.187683777    -0.980888095    -8.725212717
 H       -6.289160656    -0.951587679    -9.952884148
 H       -2.349836377     0.087280982    -7.699755797
 H       -2.314289489     3.178931305    -7.857557356
 H       -0.566710544     0.003640444    -6.648062126
 H        1.530434645     0.038177124    -5.419035371
 H        1.539092529     4.385327155    -5.636231809
 H       -0.550942340     4.300692540    -6.875108630
 H      -10.037946665    10.893142783    -8.237563673
 H       -8.290464496    10.732903743    -8.011673929
 H       -8.906955684     8.578332425    -7.383629982
 H       -8.985472169     9.330363740    -5.798531291
 H      -11.055577363     8.267441424    -5.760705010
 H      -11.574943817     9.810338572    -6.453764792
 H        2.265688771    -1.027161991    -0.064614569
 H        2.275397096     0.459042104     0.916378440
 H        2.260369025     0.567018520    -0.864190779
 H        4.580432444     0.729965439    -3.032334896
 H        3.796805835    -0.152693398    -4.365825014
 H        2.832822762     0.384175078    -2.963553662
 H        5.659526918     2.720447531    -5.048542688
 C        4.913571346     1.621535726    -6.768135270
 C        4.583746755     4.067843726    -6.368458501
 H        3.188038805     4.654664961    -3.803413084
 C        1.842329124     3.659239385    -2.426522427
 C        4.335821406     3.728554433    -2.211875035
 H       -8.439014835    -1.088698591   -11.018246631
 C       -9.349655731    -0.342508386    -9.191414693
 C      -10.364111787    -0.196011728   -11.476906454
 H       -8.568330677     1.437363774   -13.440501866
 C       -6.746516606     2.614058494   -13.310139592
 C       -6.846550688     0.113020749   -13.415546222
 H       -5.571269154    13.705976815     1.747325526
 C       -6.238211518    11.668419801     2.099807228
 C       -4.140330606    12.681441299     3.021063345
 H       -2.224321197    13.639729851     0.758700299
 C       -2.128109227    13.480440275    -1.406855071
 C       -3.521583121    15.131221382    -0.138859984
 H       -1.772038565    -1.005583111    -1.386918934
 C       -0.459450915    -0.071925322    -2.837853342
 C       -0.064921515    -2.293213501    -1.752065134
 H       -0.181278014    -1.960749742     1.476941512
 C       -0.160757718    -0.278555356     2.852051548
 C       -2.161224161    -1.074257801     1.578966427
 H        5.107479860     0.620483201    -6.362203523
 H        5.779314536     1.869359128    -7.398928294
 H        4.051679956     1.545279069    -7.446493712
 H        4.540956361     4.907000504    -5.662700319
 H        3.700400518     4.129173071    -7.019902763
 H        5.453375247     4.256627194    -7.014628087
 H        0.949341692     3.682880860    -3.067989260
 H        1.763741035     4.535280013    -1.767260311
 H        1.749080300     2.777573576    -1.778151737
 H        5.317651005     3.815796838    -2.693254874
 H        4.361668702     2.849448841    -1.554242658
 H        4.238517880     4.603114149    -1.552026794
 H       -8.449934028    -0.405668274    -8.563717564
 H       -9.915100117    -1.267878870    -9.013417613
 H       -9.968459849     0.477535094    -8.798570062
 H      -10.225974870    -0.168492062   -12.565195471
 H      -11.026874981     0.636341823   -11.201250381
 H      -10.924645102    -1.117431672   -11.262727868
 H       -7.227539860     3.563205654   -13.037364249
 H       -6.604460431     2.642029441   -14.399725856
 H       -5.739006567     2.613780578   -12.869410266
 H       -7.418696558    -0.809805883   -13.256215495
 H       -5.857196737    -0.022890304   -12.955495415
 H       -6.672483550     0.182641111   -14.499108510
 H       -7.005301439    11.647113106     1.313799921
 H       -6.759203787    11.927384001     3.032369981
 H       -5.868463017    10.641002173     2.230192716
 H       -3.355759316    13.444948171     2.944519668
 H       -3.648570399    11.710093955     3.174788071
 H       -4.688165386    12.896777227     3.949920842
 H       -1.626707432    12.503248848    -1.441978698
 H       -1.335789467    14.236703731    -1.496705129
 H       -2.742554421    13.568111916    -2.314814676
 H       -4.049794549    15.400411775     0.784543571
 H       -4.210318864    15.294936046    -0.979635011
 H       -2.714442384    15.868750881    -0.256152088
 H       -0.894703937     0.937300859    -2.791939766
 H       -0.945265788    -0.572050109    -3.687536412
 H        0.597378191     0.044823319    -3.112028991
 H       -0.221878577    -2.961373364    -0.896197243
 H        1.011457989    -2.273567323    -1.968485842
 H       -0.542699926    -2.781646675    -2.613837748
 H        0.930999628    -0.209968555     2.940332175
 H       -0.500484690    -0.877632974     3.709082249
 H       -0.571810109     0.730325258     3.000695833
 H       -2.571051678    -1.618451997     0.718734899
 H       -2.681545546    -0.108148227     1.645739131
 H       -2.459295934    -1.644364009     2.470874923

