187   

Si        0.000000000     0.000000000     0.000000000
 C        1.865182442     0.000000000     0.000000000
 C       -0.678261149     1.711484848     0.000000000
 C        0.122805796     2.803737170     0.348161721
 C       -0.400214883     4.096705725     0.345165922
 C       -1.735077084     4.326748411     0.002102377
 C       -2.537755120     3.230787377    -0.341840338
 C       -2.017991894     1.939324866    -0.342298299
 C       -2.324924565     5.661331767    -0.014779564
 C       -1.666637119     6.792506273     0.290389882
 C       -2.255772262     8.127391303     0.273737388
 C       -3.591286827     8.357329571    -0.069517509
 C       -4.113549910     9.649946806    -0.072342723
 C       -3.304980108    10.742623911     0.258524141
 C       -1.966461698    10.516730780     0.602344997
 C       -1.451329846     9.222903278     0.613721961
Si       -3.984311803    12.450712540     0.257669132
 C       -2.623814793    13.657799895     0.070928821
 C       -2.415993073    14.732861984     0.841678071
 C       -1.308289022    15.672467684     0.650874676
 C       -1.191546242    16.766064781     1.523274680
 C       -0.161870498    17.681904305     1.383979608
 C        0.768946107    17.545617348     0.334752557
 C        0.658669859    16.452931674    -0.536268391
 C       -0.358288938    15.519900580    -0.361118989
 N        1.802485738    18.518812461     0.246566982
 C        1.304666452    19.889346730    -0.015059983
 C        2.939007921    18.161615069    -0.621318296
 C        0.447355733    20.025350359    -1.286763856
 C       -1.061344114    20.011951437    -0.964967019
 N       -1.900443612    19.532168529    -2.076737473
 C       -1.796359882    20.220524940    -3.297711543
 C       -1.584704718    21.616774411    -3.297264443
 C       -1.479792088    22.310560717    -4.491352562
 C       -1.630858274    21.660812374    -5.724895777
 C       -1.871707140    20.284314228    -5.722488151
 C       -1.960877530    19.569474157    -4.535167357
 C       -1.987808572    18.064291002    -2.139331027
 C       -1.510185836    22.442086237    -6.956888522
 C       -1.635497146    21.927601094    -8.187186949
Si       -1.494895261    22.853652453    -9.755793978
 C       -0.335275462    21.986535111   -10.890652815
 C        0.606525753    21.082593344   -10.384023863
 C        1.484863276    20.425612891   -11.242213589
 C        1.451604099    20.663291296   -12.622415160
 C        0.514029655    21.570959648   -13.123768714
 C       -0.370252613    22.226732572   -12.268533827
 C        2.392200424    19.950598254   -13.480731441
 C        2.461118526    20.083391721   -14.816255837
 C        3.401341511    19.371113787   -15.675140977
 C        4.339419454    18.463429293   -15.176760051
 C        5.219833153    17.804252927   -16.034610135
 C        5.176103051    18.034393792   -17.413163208
 C        4.235149323    18.943409073   -17.915802216
 C        3.361349622    19.603710221   -17.056626483
Si        6.330551836    17.173013071   -18.559400519
 C        7.219464036    15.768761313   -17.712177284
 C        5.323753665    16.518340677   -20.036292476
 C        7.623147679    18.410455481   -19.208638361
 C       -3.217197838    22.946024057   -10.560244065
 C       -0.865208964    24.623337529    -9.458301302
 C       -5.170930673    12.669569294    -1.213885438
 C       -4.950993661    12.738553880     1.868950525
 C       -0.653148240    -0.907721767    -1.540773981
 C       -0.619423106    -0.919432286     1.547089054
 H        1.173952304     2.686567163     0.626034452
 H        0.245572544     4.930095338     0.616012864
 H       -3.580217409     3.387782029    -0.612292565
 H       -2.691915608     1.124135364    -0.620305814
 H       -3.379919922     5.691471909    -0.302421098
 H       -0.611608767     6.761947793     0.578374299
 H       -4.237518230     7.523410475    -0.336899628
 H       -5.165863891     9.767590894    -0.345140416
 H       -1.290602546    11.334694571     0.872486184
 H       -0.409844178     9.064643044     0.887801982
 H       -1.955163428    13.427168161    -0.776047212
 H       -3.065135306    14.994349850     1.687193444
 H       -1.913723398    16.892163751     2.330358996
 H       -0.057853482    18.502966104     2.090382719
 H        1.362709910    16.321118147    -1.352819885
 H       -0.414288062    14.666039700    -1.038383620
 H        3.756149016    18.883469684    -0.445075544
 H        2.707470894    18.156161559    -1.697734297
 H        3.322609638    17.167171397    -0.332945410
 H       -2.092017398    17.648857949    -1.119297029
 H       -1.109717565    17.588803806    -2.605157663
 H       -2.897698390    17.775488437    -2.694950922
 H       -1.499345374    22.155351649    -2.358130177
 H       -1.292424995    23.384421972    -4.467376540
 H       -1.993689005    19.753099580    -6.668046678
 H       -2.146086044    18.500886393    -4.579795424
 H       -1.301197712    23.504459531    -6.775234624
 H       -1.855088084    20.856818856    -8.334538189
 H        0.681038941    20.862126000    -9.314044100
 H        2.206335074    19.721462173   -10.832187484
 H        0.467202019    21.773234495   -14.192072024
 H       -1.082766415    22.923502375   -12.718444070
 H        3.068478963    19.271435555   -12.953297807
 H        1.784467747    20.762282015   -15.343459229
 H        4.391467159    18.263340226   -14.108115873
 H        5.931892506    17.106194306   -15.585755860
 H        4.153916531    19.162230158   -18.984308452
 H        2.638189511    20.306689441   -17.465664704
 H        0.735556953    20.219204461     0.882815744
 H        2.186895564    20.565535653    -0.073719679
 H        0.705193686    20.954375407    -1.828045174
 H        0.685767628    19.209714419    -1.996528680
 H       -1.265926831    19.368872844    -0.077231964
 H       -1.406156817    21.031487293    -0.680023472
 H        2.262969814    -1.029543472    -0.046939771
 H        2.275786719     0.473671346     0.908826150
 H        2.260429602     0.548655797    -0.874302932
 H        7.875008549    15.228957416   -18.418684024
 H        6.501509986    15.036266738   -17.300632397
 H        7.850763645    16.126764648   -16.880095320
 H        4.855102227    17.425838718   -20.517206983
 C        6.182056694    15.811699633   -21.100461856
 C        4.186294366    15.576105765   -19.602461051
 H        8.330084615    17.804991147   -19.846549672
 C        7.026087869    19.524754841   -20.086554335
 C        8.439384585    19.059449643   -18.075694357
 H       -3.088291447    23.551784068   -11.503344279
 C       -3.757682254    21.560453602   -10.956253376
 C       -4.256496453    23.656714649    -9.675676839
 H       -1.552317311    25.070303020    -8.682589714
 C        0.570172139    24.649250380    -8.901500733
 C       -0.923609587    25.512191192   -10.713533770
 H       -6.010220056    11.933660593    -1.048819006
 C       -5.781310822    14.080038823    -1.289096608
 C       -4.506418218    12.337355207    -2.561730111
 H       -5.258269862    13.824369449     1.857830339
 C       -6.227013044    11.884391345     1.973437587
 C       -4.089519692    12.495067159     3.121572762
 H       -1.777688561    -0.915429322    -1.442377995
 C       -0.299984344    -0.177318155    -2.849048372
 C       -0.179998237    -2.368986047    -1.638793376
 H       -0.138848943    -1.939613046     1.509452318
 C       -0.184089030    -0.234748409     2.855633086
 C       -2.146236018    -1.112517758     1.575524851
 H        6.975715322    16.448461902   -21.512201744
 H        5.553518061    15.514948866   -21.952723511
 H        6.650655168    14.890277637   -20.730108084
 H        3.494423859    16.034647444   -18.881365190
 H        4.549792387    14.638426729   -19.161618852
 H        3.578183957    15.293065813   -20.473416267
 H        6.495422654    19.146951701   -20.969558549
 H        7.828757507    20.173726974   -20.466387527
 H        6.339033160    20.181157932   -19.534125497
 H        8.969942154    18.332014388   -17.447965931
 H        7.825801614    19.686187849   -17.412486152
 H        9.209871460    19.720696655   -18.497497545
 H       -3.086303663    21.006463241   -11.627376328
 H       -4.709803371    21.667432308   -11.495089925
 H       -3.965070344    20.918012551   -10.089407736
 H       -3.980206838    24.688263966    -9.422294920
 H       -4.452188584    23.124035529    -8.733746198
 H       -5.220415340    23.716468967   -10.200721836
 H        0.694741241    24.066526884    -7.978584526
 H        0.862551654    25.680267566    -8.658250646
 H        1.312803861    24.280824966    -9.624004107
 H       -1.937785676    25.632649069   -11.114990641
 H       -0.280114235    25.148060050   -11.526775567
 H       -0.567430427    26.524604191   -10.473456764
 H       -6.354628269    14.354290825    -0.394107242
 H       -6.483457867    14.141460012    -2.133039669
 H       -5.029579630    14.864702291    -1.456876973
 H       -4.079835358    11.324955581    -2.599594957
 H       -3.710222323    13.044043413    -2.832920329
 H       -5.249949496    12.385866443    -3.370166495
 H       -6.945930782    12.073468916     1.166142874
 H       -6.754716159    12.111025725     2.911503216
 H       -6.019703539    10.805013950     1.994214683
 H       -3.172776790    13.099473632     3.150486089
 H       -3.791642347    11.442404246     3.235015371
 H       -4.658033936    12.752444756     4.026403735
 H       -0.656819388     0.862269242    -2.875683933
 H       -0.769941264    -0.685062649    -3.703334826
 H        0.778633149    -0.161685102    -3.054340210
 H       -0.461595782    -2.976584285    -0.769103310
 H        0.906061875    -2.459699646    -1.772901348
 H       -0.638362457    -2.853729384    -2.513111967
 H        0.904234181    -0.131468391     2.953231697
 H       -0.514564917    -0.829085087     3.719612493
 H       -0.626308870     0.763924197     2.982572890
 H       -2.529509531    -1.680582397     0.718500766
 H       -2.696153352    -0.161954625     1.623861340
 H       -2.436377819    -1.679027667     2.472459961

