187   

Si        0.000000000     0.000000000     0.000000000
 C        1.865083082     0.000000000     0.000000000
 C       -0.679228183     1.710971500     0.000000000
 C        0.095200466     2.791744937     0.434179659
 C       -0.426632330     4.085205571     0.431167326
 C       -1.733860817     4.327215033     0.000931739
 C       -2.510412014     3.242558917    -0.428180129
 C       -1.992324663     1.950439124    -0.426649160
 C       -2.322731227     5.662003723    -0.020067256
 C       -1.691333331     6.784934932     0.362530156
 C       -2.284226807     8.118174105     0.339883634
 C       -1.512306414     9.206902245     0.767575531
 C       -2.036219491    10.496875380     0.763332569
 C       -3.349766919    10.727542041     0.335220031
 C       -4.122057674     9.642965702    -0.092969350
 C       -3.591926974     8.353229216    -0.093265818
Si       -4.047208988    12.430186146     0.327543766
 C       -5.868201904    12.352120632     0.198239842
 C       -6.623485591    13.035354696    -0.671734742
 C       -8.082543936    12.943081694    -0.741431169
 C       -8.765643968    13.709257342    -1.697366691
 C      -10.145133609    13.658721325    -1.805133873
 C      -10.894737759    12.789419999    -0.980943858
 C      -10.209660078    12.017900197    -0.022357713
 C       -8.830043196    12.116558188     0.101819538
 N      -12.289757033    12.753762929    -1.106122781
 C      -12.862040149    12.894223459    -2.455016319
 C      -13.030023732    11.848553881    -0.218260645
 C      -12.259640398    11.976494370    -3.535250233
 C      -12.711225493    10.507698263    -3.455418987
 N      -14.132213167    10.238868493    -3.755255902
 C      -15.010702215    10.370016306    -2.648882860
 C      -14.824290514     9.479221305    -1.572403606
 C      -15.646129843     9.550929728    -0.459909676
 C      -16.693900198    10.482539273    -0.395669701
 C      -16.892179288    11.342265446    -1.478519545
 C      -16.073353901    11.283698100    -2.601378044
 C      -14.593361610    10.835177159    -5.018053428
 C      -17.533469597    10.516371412     0.804361325
 C      -18.558601593    11.360443300     0.975853170
Si      -19.640653888    11.451040837     2.446736988
 C      -19.751667072    13.198344720     3.008828993
 C      -18.708996028    14.088585613     2.729161256
 C      -18.781232669    15.415801783     3.149890753
 C      -19.887984626    15.878546860     3.867389288
 C      -20.926907110    14.982417262     4.151900305
 C      -20.860736818    13.657056951     3.729584481
 C      -20.005834220    17.258386273     4.327361561
 C      -19.084026910    18.214312833     4.121349361
 C      -19.200694426    19.594363181     4.580764460
 C      -20.307788767    20.060637225     5.294239249
 C      -20.377761130    21.388935911     5.714298522
 C      -19.336352386    22.279274135     5.434705567
 C      -18.224213523    21.813643737     4.720037032
 C      -18.159738372    20.488963371     4.297402735
Si      -19.412866273    24.035388247     5.981809261
 C      -20.796532059    24.314447600     7.201425037
 C      -17.739764768    24.486084512     6.770025674
 C      -19.693830049    25.160250912     4.472229652
 C      -21.367312078    10.813352844     1.967100023
 C      -18.968940476    10.384045286     3.869595423
 C       -3.589276137    13.300477702     1.956772158
 C       -3.298682728    13.408520303    -1.121415270
 C       -0.648406344    -0.915668603    -1.538427356
 C       -0.624701709    -0.914337626     1.547994095
 H        1.124370490     2.664842526     0.781242678
 H        0.198034272     4.909677794     0.770041510
 H       -3.531387555     3.408882027    -0.766579242
 H       -2.646142533     1.144498052    -0.771326438
 H       -3.354701098     5.700167648    -0.381457912
 H       -0.659639332     6.748398695     0.724047290
 H       -0.491221720     9.045174092     1.107214224
 H       -1.387786557    11.307320826     1.107430031
 H       -5.152797560     9.766040799    -0.441410192
 H       -4.211318632     7.525793708    -0.434240649
 H       -6.327137344    11.674609269     0.937575643
 H       -6.199163754    13.724272352    -1.413903717
 H       -8.204505854    14.369099827    -2.359808752
 H      -10.650444177    14.294957233    -2.525454508
 H      -10.748246430    11.339694586     0.631294490
 H       -8.325047197    11.519750081     0.863370741
 H      -14.118261528    11.968789864    -0.376171822
 H      -12.828697885    12.125492241     0.833021450
 H      -12.783742104    10.784068603    -0.363218604
 H      -13.909783280    10.526069317    -5.828215032
 H      -14.651972863    11.934621400    -5.011297684
 H      -15.591862668    10.430485081    -5.263432836
 H      -14.038060083     8.728629359    -1.628369356
 H      -15.485655840     8.860655848     0.368800835
 H      -17.703367194    12.071853876    -1.453904768
 H      -16.257771384    11.961840959    -3.429283046
 H      -17.238864249     9.776356202     1.559619517
 H      -18.833901895    12.086904472     0.192189608
 H      -17.815883874    13.781672090     2.174605204
 H      -17.960669330    16.091772196     2.915566842
 H      -21.797278007    15.323086280     4.709405017
 H      -21.700928823    13.003758137     3.979574567
 H      -20.927032738    17.481628853     4.873340571
 H      -18.162576964    17.990551978     3.575433777
 H      -21.129941383    19.386952066     5.528430585
 H      -21.269884578    21.695461385     6.267398588
 H      -17.379695605    22.463736576     4.473975018
 H      -17.288405085    20.146190043     3.742385175
 H      -13.963780642    12.739936282    -2.395032412
 H      -12.725462154    13.960009424    -2.760422043
 H      -12.497221963    12.391965270    -4.532422872
 H      -11.150966051    12.002696868    -3.468969936
 H      -12.118046902     9.905419644    -4.185537788
 H      -12.467120646    10.097618399    -2.449987508
 H        2.263010135    -1.029462837    -0.045837120
 H        2.276412398     0.475274392     0.907577399
 H        2.259464546     0.548066423    -0.875167387
 H      -20.807646354    25.359718702     7.558690645
 H      -20.681794728    23.662874008     8.086693009
 H      -21.784214400    24.105580062     6.754448057
 H      -16.967033268    24.339197262     5.960216232
 C      -17.656974969    25.949096121     7.240475124
 C      -17.373222075    23.559721058     7.943594156
 H      -19.787992838    26.206019523     4.885698304
 C      -18.528353113    25.149576288     3.467003298
 C      -20.995454356    24.825071680     3.721128889
 H      -21.991062297    10.868831073     2.906006353
 C      -22.042810912    11.687410868     0.895471658
 C      -21.357175536     9.350876551     1.488821239
 H      -18.826911768     9.349146632     3.442716478
 C      -17.606335451    10.882909444     4.384767157
 C      -19.938925537    10.279182680     5.059899393
 H       -2.462146375    13.346704703     1.978426290
 C       -4.127728285    14.739289962     2.042244564
 C       -4.055773535    12.514551460     3.195149826
 H       -3.843030965    14.397046522    -1.140364762
 C       -1.795866401    13.697580117    -0.957501659
 C       -3.521859598    12.711118172    -2.476005719
 H       -1.773100932    -0.926311802    -1.442339389
 C       -0.294229941    -0.190381960    -2.849280949
 C       -0.171645926    -2.376305399    -1.629448906
 H       -0.151699234    -1.937954472     1.512165735
 C       -0.185896964    -0.230977237     2.856046162
 C       -2.153113589    -1.095234421     1.574070837
 H      -17.834537836    26.674931830     6.436424990
 H      -16.650339287    26.161723013     7.629229499
 H      -18.354932881    26.176813557     8.057008592
 H      -17.356037159    22.495629447     7.667343863
 H      -18.048409938    23.667322874     8.802797410
 H      -16.364669507    23.797409408     8.311005755
 H      -17.572306139    25.463436750     3.904820495
 H      -18.734374864    25.852101923     2.646217771
 H      -18.379122385    24.167348940     2.996950728
 H      -21.892463903    24.893248708     4.349948717
 H      -20.981555499    23.822860760     3.269044532
 H      -21.146212848    25.533238125     2.893723251
 H      -22.121474974    12.745825182     1.181484713
 H      -23.071098545    11.340357467     0.719811772
 H      -21.533215221    11.643294343    -0.076827115
 H      -20.966223253     8.649961366     2.237611834
 H      -20.779843283     9.206349623     0.564391732
 H      -22.381912162     9.021024272     1.265192676
 H      -16.837745497    10.951493208     3.603064956
 H      -17.214331502    10.191941474     5.144353162
 H      -17.669996182    11.868100982     4.869664196
 H      -20.905829905     9.831959644     4.796372600
 H      -20.135974917    11.248812352     5.538980100
 H      -19.507289398     9.635793382     5.840579328
 H       -3.766904800    15.388081424     1.233843864
 H       -3.802171283    15.208232124     2.981743767
 H       -5.226408409    14.785591414     2.040266310
 H       -3.674747675    11.484029421     3.225965024
 H       -5.149763446    12.467364755     3.285067260
 H       -3.692085049    13.003136872     4.110288675
 H       -1.559354019    14.278837210    -0.057229146
 H       -1.433092212    14.291515877    -1.809075469
 H       -1.183888462    12.784873968    -0.940686613
 H       -4.578159051    12.503305514    -2.694968032
 H       -2.977451048    11.759284203    -2.559117912
 H       -3.155786208    13.347501940    -3.293696415
 H       -0.650920294     0.849138782    -2.880556884
 H       -0.762921489    -0.701703981    -3.702071941
 H        0.784673302    -0.175311944    -3.053291676
 H       -0.453246218    -2.980799617    -0.757611167
 H        0.914821091    -2.465058322    -1.761409046
 H       -0.627515109    -2.865814630    -2.502378412
 H        0.903045952    -0.135993476     2.954785716
 H       -0.522016039    -0.821501280     3.720448325
 H       -0.620952098     0.771125728     2.980892146
 H       -2.538843183    -1.664930591     0.719219926
 H       -2.695721369    -0.140008973     1.615021381
 H       -2.449995548    -1.654283804     2.473387978

