187   

Si        0.000000000     0.000000000     0.000000000
 C        1.865161875     0.000000000     0.000000000
 C       -0.674090564     1.713259492     0.000000000
 C        0.113287661     2.793330825    -0.412068033
 C       -0.402651617     4.089037222    -0.409982068
 C       -1.716744189     4.334294321    -0.002917204
 C       -2.506086010     3.250467244     0.404225544
 C       -1.993747374     1.955941782     0.403889260
 C       -2.298278919     5.672496048     0.015509606
 C       -1.650902951     6.792562444    -0.348217808
 C       -2.230899526     8.131407704    -0.330389856
 C       -3.545448139     8.377891323     0.076666168
 C       -4.059352952     9.673790507     0.078046631
 C       -3.263804776    10.753221755    -0.321380878
 C       -1.946881805    10.510482333    -0.730313034
 C       -1.439877938     9.213357156    -0.738138972
Si       -3.935691438    12.464639837    -0.321783036
 C       -2.562544803    13.671095305    -0.303471077
 C       -2.425706143    14.715880673    -1.129822837
 C       -1.306116805    15.658713808    -1.078304950
 C       -1.271516330    16.717709036    -1.999211687
 C       -0.235596738    17.635759717    -1.992459985
 C        0.792605730    17.539380690    -1.030432450
 C        0.764098099    16.478132863    -0.111935293
 C       -0.263875248    15.542224308    -0.156699244
 N        1.827003108    18.501346123    -1.066606567
 C        1.385289160    19.915176322    -1.061633200
 C        2.991612863    18.249510227    -0.202683138
 C        0.131283775    20.225736745    -0.228203051
 C        0.303980852    19.900182589     1.266388899
 N       -0.978201819    19.726282395     1.974503492
 C       -1.860143783    20.823155693     1.967330010
 C       -1.344956283    22.136354041     2.023022602
 C       -2.199936179    23.226357405     2.016771205
 C       -3.591880989    23.057593217     2.005598424
 C       -4.100314048    21.756082915     1.983264440
 C       -3.257555565    20.652368623     1.972276258
 C       -1.572738697    18.395882477     1.757195131
 C       -4.450272256    24.243422317     1.999368932
 C       -5.788922533    24.199862042     1.988684744
Si       -6.910158935    25.642455669     1.980493278
 C       -8.179890924    25.447604181     3.297182538
 C       -7.944694104    24.596644045     4.382278620
 C       -8.903822951    24.445381122     5.382985012
 C      -10.111041537    25.147364734     5.327611231
 C      -10.341010873    26.003804492     4.242556254
 C       -9.387703886    26.153999762     3.238810705
 C      -11.142708854    25.020139792     6.351723318
 C      -11.048147435    24.236052158     7.439013535
 C      -12.079040786    24.108017256     8.463701248
 C      -13.288609897    24.805133897     8.408247472
 C      -14.246618878    24.652456926     9.410503030
 C      -14.011875382    23.801732394    10.495158745
 C      -12.799139140    23.101513204    10.553477464
 C      -11.847386810    23.251855101     9.548862698
Si      -15.265327979    23.588724190    11.826344007
 C      -16.611289830    24.875526470    11.714360720
 C      -16.057638644    21.863777065    11.685297573
 C      -14.375670368    23.711275406    13.504894199
 C       -5.956157112    27.261688108     2.270118834
 C       -7.765856806    25.732736507     0.282934005
 C       -5.040822482    12.700112412    -1.850987873
 C       -4.987875780    12.738526005     1.240069843
 C       -0.624470904    -0.913131339    -1.548698995
 C       -0.652115564    -0.912694165     1.538328680
 H        1.148252685     2.664257656    -0.740766316
 H        0.232099618     4.912588712    -0.732069979
 H       -3.532558827     3.419190704     0.724274251
 H       -2.657267930     1.150545356     0.730918863
 H       -3.336671409     5.715423023     0.356833960
 H       -0.612522392     6.748880100    -0.689997914
 H       -4.181282566     7.554516484     0.396451364
 H       -5.094801687     9.804884181     0.404217799
 H       -1.282435906    11.317332686    -1.056329109
 H       -0.415334240     9.041972634    -1.063205250
 H       -1.820258701    13.470608206     0.487555263
 H       -3.149365917    14.947176300    -1.922221104
 H       -2.066608241    16.815347383    -2.739366906
 H       -0.204196052    18.430394869    -2.734370005
 H        1.541181528    16.370938223     0.638274728
 H       -0.255269935    14.714796306     0.554884728
 H        3.801259083    18.946693662    -0.482731513
 H        3.374372201    17.230209300    -0.392518309
 H        2.793965279    18.358813675     0.874929751
 H       -0.784847871    17.621798673     1.770287219
 H       -2.112686763    18.302432837     0.800194977
 H       -2.263387278    18.166784989     2.588241576
 H       -0.272526072    22.300907778     2.067565048
 H       -1.779019824    24.231942662     2.036752916
 H       -5.179781112    21.595121024     1.975703120
 H       -3.695876210    19.659309947     1.953380463
 H       -3.886010978    25.185048608     2.008435471
 H       -6.324664239    23.235760635     1.972974845
 H       -7.015565554    24.025277354     4.481260860
 H       -8.700697266    23.772962944     6.214553317
 H      -11.274754904    26.559142352     4.180799907
 H       -9.622519462    26.834231827     2.415758494
 H      -12.037310389    25.625111839     6.177857380
 H      -10.153216591    23.631152674     7.612784733
 H      -13.494394087    25.476296485     7.576447903
 H      -15.173963143    25.223348694     9.311565964
 H      -12.560467115    22.423163059    11.377539351
 H      -10.912297798    22.698282232     9.610673578
 H        2.227536949    20.560681841    -0.730438293
 H        1.189411298    20.186395002    -2.127934103
 H       -0.138077649    21.293091538    -0.351538988
 H       -0.738924938    19.667272652    -0.630099249
 H        0.893533156    18.964626199     1.398501338
 H        0.886362764    20.698448653     1.777761054
 H        2.263146471    -1.028738696     0.060539497
 H        2.259922396     0.560432561     0.867103905
 H        2.276084939     0.461858458    -0.914660949
 H      -17.336317975    24.766230718    12.540575646
 H      -17.172977961    24.798639794    10.766987659
 H      -16.190178067    25.895514262    11.775589477
 H      -16.849575935    21.826648157    12.488283593
 C      -16.745405521    21.640206042    10.325964896
 C      -15.072602648    20.707713986    11.934718401
 H      -13.613451090    22.878552250    13.512054319
 C      -13.620311398    25.041822899    13.675189793
 C      -15.309010858    23.506108359    14.711235844
 H       -5.131962793    27.277806855     1.499475786
 C       -6.817423410    28.521787189     2.071095308
 C       -5.310451886    27.320519561     3.666663282
 H       -8.418617694    26.652561359     0.311660247
 C       -6.774088201    25.888557758    -0.883244304
 C       -8.670642191    24.517073457     0.013836684
 H       -5.340054195    13.788243150    -1.853048624
 C       -4.295065050    12.403602579    -3.164917285
 C       -6.326036925    11.854296210    -1.811246463
 H       -5.841565241    12.003761385     1.173157959
 C       -4.208934349    12.444769993     2.534548483
 C       -5.582948082    14.155220150     1.322498118
 H       -0.148139568    -1.935331931    -1.515495596
 C       -2.152317561    -1.098771994    -1.573338637
 C       -0.189500135    -0.225971048    -2.856049673
 H       -1.776858628    -0.918095817     1.442210247
 C       -0.181870698    -2.375431616     1.629167097
 C       -0.294624573    -0.188839552     2.849108412
 H      -17.528456774    22.377270000    10.106377363
 H      -17.236454798    20.656648820    10.309501914
 H      -16.038588933    21.644920113     9.483668938
 H      -14.590381449    20.749752452    12.919496452
 H      -14.282134770    20.649762285    11.173191274
 H      -15.605159664    19.746239600    11.895620252
 H      -12.892501429    25.233174636    12.873534309
 H      -13.047667773    25.033088158    14.613577321
 H      -14.288928006    25.911135289    13.729124738
 H      -15.830319538    22.540250970    14.698297995
 H      -16.067574119    24.294438731    14.805147058
 H      -14.726607483    23.528167848    15.643948360
 H       -7.233253179    28.610060149     1.059464929
 H       -6.207000897    29.422612214     2.230568617
 H       -7.650530969    28.588360372     2.785010388
 H       -4.646959907    26.471475908     3.881154622
 H       -6.052998247    27.368070790     4.476469372
 H       -4.694492435    28.225779397     3.760346914
 H       -6.147543960    26.786328262    -0.805049442
 H       -7.320327050    25.976416664    -1.833117672
 H       -6.103904801    25.023792902    -0.992710002
 H       -9.437936091    24.365944167     0.786285290
 H       -8.108544496    23.578195236    -0.083942784
 H       -9.211732110    24.652394498    -0.933338502
 H       -3.379521256    12.996406988    -3.295710760
 H       -4.938804093    12.635403431    -4.025074450
 H       -4.016440205    11.344487306    -3.266049622
 H       -6.970443649    12.080047529    -0.952153786
 H       -6.127693713    10.773117644    -1.809373543
 H       -6.932267987    12.050686507    -2.707740251
 H       -3.785565827    11.430820093     2.567561958
 H       -4.878312967    12.524961938     3.403013107
 H       -3.388516429    13.153615251     2.711384817
 H       -6.225935479    14.407382687     0.469370418
 H       -4.815328002    14.938181145     1.404314907
 H       -6.213237902    14.246821592     2.218716982
 H       -2.535328303    -1.671869420    -0.719517434
 H       -2.448354913    -1.656557974    -2.473759348
 H       -2.698034401    -0.145256335    -1.611652322
 H        0.898978344    -0.127108090    -2.956043222
 H       -0.627966368     0.774913716    -2.978616662
 H       -0.524623282    -0.815989799    -3.721173943
 H       -0.463136348    -2.977773587     0.755735396
 H       -0.642664821    -2.864098386     2.500020189
 H        0.903808074    -2.468848886     1.764479995
 H       -0.647819540     0.851827970     2.880776201
 H        0.784427729    -0.177580372     3.052611392
 H       -0.764755282    -0.698849977     3.701960883

