187   

Si        0.000000000     0.000000000     0.000000000
 C        1.865171451     0.000000000     0.000000000
 C       -0.674736830     1.712941804     0.000000000
 C        0.111001674     2.793686703     0.413388935
 C       -0.406192804     4.088907054     0.411000176
 C       -1.720223513     4.332868513     0.003097242
 C       -2.508020076     3.248344857    -0.405214448
 C       -1.994236052     1.954430535    -0.405195699
 C       -2.303447838     5.670287095    -0.015839971
 C       -1.658369925     6.791617410     0.348090790
 C       -2.241353916     8.129184981     0.329253717
 C       -3.556150481     8.372133733    -0.079039271
 C       -4.073371557     9.666698275    -0.081523431
 C       -3.280856085    10.748598316     0.317399630
 C       -1.963519614    10.509341776     0.727233272
 C       -1.453247664     9.213479774     0.736433076
Si       -3.957846338    12.458858717     0.316185357
 C       -2.586794012    13.667406944     0.317360442
 C       -2.459014326    14.710309041     1.147961017
 C       -1.340621266    15.654574290     1.111808017
 C       -1.313696941    16.710870345     2.033645817
 C       -0.277649628    17.630547868     2.040272171
 C        0.754593237    17.552785934     1.080774068
 C        0.727364111    16.493643766     0.155020312
 C       -0.293934647    15.552510341     0.191928897
 N        1.800587452    18.497409147     1.103126741
 C        1.436648557    19.874837105     1.484700374
 C        2.754697966    18.458124077    -0.018639065
 C        0.440099817    20.524395669     0.511392481
 C        0.048180553    21.929517701     0.995539040
 N       -0.812903148    22.649977027     0.039552464
 C       -0.261222361    22.927058615    -1.226721715
 C        1.119180547    23.194096455    -1.350266790
 C        1.673984895    23.468025245    -2.589983448
 C        0.878616153    23.536075479    -3.742368857
 C       -0.493195662    23.302642341    -3.613619362
 C       -1.062564819    23.010292785    -2.380989083
 C       -2.206345738    22.172263608     0.065767768
 C        1.515832407    23.828882557    -5.027549144
 C        0.855440636    23.917613850    -6.189296789
Si        1.597923763    24.279668837    -7.819528207
 C        0.661818069    25.631374441    -8.644046300
 C       -0.130534368    26.504926372    -7.889162125
 C       -0.839777784    27.528764067    -8.512323666
 C       -0.765951112    27.711433524    -9.899348726
 C        0.031272769    26.841234372   -10.648642332
 C        0.738928749    25.812160635   -10.029214080
 C       -1.527495790    28.798329711   -10.506011043
 C       -1.547595908    29.077985385   -11.820267071
 C       -2.308970358    30.164730564   -12.427269412
 C       -3.106444738    31.035733194   -11.680482286
 C       -3.817862583    32.061741857   -12.302329088
 C       -3.751584479    32.234802796   -13.688341801
 C       -2.953138520    31.361866650   -14.439821711
 C       -2.240129012    30.342091554   -13.815702403
Si       -4.684325710    33.583852401   -14.524327611
 C       -5.950455947    34.349238708   -13.388178277
 C       -3.470590963    34.937557964   -15.088301746
 C       -5.536020984    32.855460792   -16.062949342
 C        3.419329262    24.798960452    -7.649136596
 C        1.508437683    22.706381265    -8.886484564
 C       -4.994678506    12.725254184    -1.257306842
 C       -5.080715073    12.686786604     1.833731958
 C       -0.650885299    -0.911841146    -1.539447105
 C       -0.625719847    -0.914588264     1.547319068
 H        1.145749948     2.665495560     0.743117223
 H        0.227512175     4.913171298     0.733393652
 H       -3.534306423     3.416155309    -0.726219018
 H       -2.656531784     1.148607700    -0.733565862
 H       -3.341584181     5.711618562    -0.358094484
 H       -0.620179863     6.750121810     0.690673560
 H       -4.189589359     7.547056058    -0.398884507
 H       -5.108825271     9.794805839    -0.408572094
 H       -1.301204538    11.318454891     1.052551859
 H       -0.428382103     9.044946923     1.061951443
 H       -1.836127970    13.471393823    -0.466838807
 H       -3.191594102    14.938481906     1.933010705
 H       -2.114139368    16.806378642     2.767907562
 H       -0.268085974    18.415164725     2.791374107
 H        1.503078811    16.392290583    -0.597499466
 H       -0.280717221    14.731798553    -0.527539280
 H        3.533375945    19.225993227     0.126718512
 H        2.286439920    18.622122382    -1.003136875
 H        3.269048805    17.480128656    -0.023306906
 H       -2.519911287    21.984731773     1.106512849
 H       -2.366104578    21.249002995    -0.515257647
 H       -2.868567016    22.964380911    -0.328152137
 H        1.760227843    23.181402683    -0.473636355
 H        2.746920842    23.648187285    -2.663685633
 H       -1.137122662    23.350134385    -4.493743703
 H       -2.132579095    22.835588835    -2.328486862
 H        2.600901281    23.975167616    -4.947735346
 H       -0.235065872    23.758075569    -6.235719391
 H       -0.221201675    26.412631755    -6.801785809
 H       -1.455567952    28.195177355    -7.911149120
 H        0.105593132    26.961565401   -11.727722474
 H        1.343933091    25.161969462   -10.666960314
 H       -2.107423264    29.400177177    -9.800027811
 H       -0.967936686    28.476170061   -12.526246668
 H       -3.178320043    30.920086921   -10.600545578
 H       -4.424085650    32.711728456   -11.665275989
 H       -2.863705775    31.448435010   -15.526413131
 H       -1.624658557    29.674827359   -14.416006793
 H        1.022182906    19.857108345     2.518177378
 H        2.370583680    20.478053676     1.546975166
 H        0.877917786    20.579498046    -0.504590710
 H       -0.460982285    19.889148273     0.407421461
 H       -0.485275571    21.870681482     1.971170415
 H        0.954686377    22.547561103     1.187922453
 H        2.263205661    -1.028943336    -0.056032923
 H        2.276332439     0.466101455     0.912414214
 H        2.259597674     0.556578584    -0.869722258
 H       -6.538323057    35.124064221   -13.911959741
 H       -5.478532245    34.826129737   -12.511295544
 H       -6.661051542    33.588393212   -13.017278906
 H       -4.110350620    35.755725384   -15.529243488
 C       -2.669910364    35.536121325   -13.917137345
 C       -2.483037304    34.469168937   -16.171917307
 H       -4.705933710    32.457525165   -16.716428455
 C       -6.468588143    31.679890806   -15.719214783
 C       -6.321308223    33.895979977   -16.881012162
 H        3.919917581    23.982314153    -7.052542180
 C        4.149633248    24.917253611    -8.998872159
 C        3.582060505    26.124082748    -6.882117867
 H        2.005293943    22.965948695    -9.865751622
 C        2.264649718    21.516746354    -8.269415097
 C        0.060620409    22.279776168    -9.187274547
 H       -5.840082348    11.979980188    -1.202582091
 C       -5.606691803    14.134405277    -1.343342407
 C       -4.197113444    12.444239175    -2.543240296
 H       -5.381683752    13.774403463     1.835919245
 C       -6.364209239    11.839125599     1.777835156
 C       -4.348964762    12.387427042     3.154992533
 H       -1.775667124    -0.918108291    -1.443752027
 C       -0.293387224    -0.186739321    -2.849468357
 C       -0.179766348    -2.374229179    -1.631459852
 H       -0.152934557    -1.938315911     1.511125564
 C       -0.186987741    -0.232110947     2.855858736
 C       -2.154169715    -1.095049111     1.573009951
 H       -3.302681784    35.971084942   -13.132845470
 H       -2.025543032    36.350427364   -14.278445735
 H       -2.002249555    34.805059898   -13.438659574
 H       -2.975142523    34.100377239   -17.080675248
 H       -1.799382942    33.685592811   -15.815870204
 H       -1.846835787    35.308892157   -16.487878997
 H       -5.961290886    30.866866361   -15.180200563
 H       -6.868603702    31.233910888   -16.640936942
 H       -7.337618384    31.982053045   -15.119860932
 H       -5.703889100    34.736751500   -17.222791984
 H       -7.179168788    34.310924327   -16.335418689
 H       -6.731708959    33.428137807   -17.787736314
 H        4.169483902    23.978921566    -9.567433148
 H        5.200338761    25.197127734    -8.833844216
 H        3.725785152    25.696152377    -9.648403840
 H        3.118933363    26.116196676    -5.885944210
 H        3.168766057    26.984632400    -7.428124827
 H        4.647841862    26.341932491    -6.725989814
 H        3.330685129    21.717474783    -8.102565705
 H        2.216846736    20.649683214    -8.943559827
 H        1.834580230    21.186383361    -7.312992735
 H       -0.534548231    23.067987047    -9.669755759
 H       -0.484732972    21.953393544    -8.291149459
 H        0.055594863    21.425476028    -9.879043794
 H       -6.265407269    14.375241564    -0.499149604
 H       -6.223260211    14.222415699    -2.249270185
 H       -4.847780574    14.927195547    -1.410096230
 H       -3.762493584    11.435041107    -2.574261631
 H       -3.381993609    13.162366835    -2.707305572
 H       -4.856149538    12.520835852    -3.419712675
 H       -6.996818469    12.062208078     0.909403295
 H       -6.983046998    12.036033400     2.665411774
 H       -6.163864690    10.758341520     1.780402784
 H       -3.436266356    12.982113231     3.297490465
 H       -4.068570143    11.328747839     3.255379982
 H       -5.002665060    12.614637396     4.008679968
 H       -0.646334322     0.854071117    -2.879998192
 H       -0.763563225    -0.695585349    -3.702935165
 H        0.785663796    -0.175442679    -3.052930604
 H       -0.464328253    -2.978417556    -0.760361007
 H        0.906429461    -2.467149450    -1.762779448
 H       -0.636940363    -2.861201994    -2.505137589
 H        0.901992693    -0.138188203     2.955278515
 H       -0.524150023    -0.822612446     3.719882673
 H       -0.621051927     0.770400914     2.980891172
 H       -2.540164045    -1.663101927     0.717189654
 H       -2.696408293    -0.139708429     1.615861462
 H       -2.451253221    -1.655610409     2.471347353

