187   

Si        0.000000000     0.000000000     0.000000000
 C        1.865121146     0.000000000     0.000000000
 C       -0.675007387     1.712582579     0.000000000
 C        0.098498712     2.788154021    -0.448816990
 C       -0.418431174     4.083365356    -0.446407811
 C       -1.721113684     4.331626331    -0.006267136
 C       -2.497101078     3.252234315     0.436851232
 C       -1.982622549     1.958776746     0.439258493
 C       -2.304061262     5.667937657     0.014342774
 C       -1.672827216     6.787855520    -0.377445192
 C       -2.269413742     8.118798080    -0.351080172
 C       -1.509792701     9.212791163    -0.786036836
 C       -2.046637778    10.497210511    -0.774799220
 C       -3.355829668    10.716459062    -0.325501653
 C       -4.118175497     9.625603697     0.101981182
 C       -3.579641591     8.339951729     0.079880343
Si       -4.059927691    12.415442334    -0.312849362
 C       -5.864572757    12.375320339    -0.015664319
 C       -6.487513641    13.122515411     0.905373864
 C       -7.925247489    13.115998586     1.169504170
 C       -8.412686662    13.965596918     2.175116403
 C       -9.759127603    14.013085838     2.480109637
 C      -10.692454161    13.243140168     1.750084219
 C      -10.203010130    12.388794215     0.742514520
 C       -8.838159953    12.314304703     0.483424652
 N      -12.056039969    13.298078804     2.066987563
 C      -12.589586617    14.508677262     2.713231321
 C      -13.004719947    12.666206025     1.141044602
 C      -13.442121009    14.165247352     3.954902848
 C      -12.798765596    13.103026124     4.871297795
 N      -11.431890829    13.479168007     5.260036565
 C      -10.405298704    12.528851606     5.200063883
 C      -10.596676738    11.263909286     4.603349954
 C       -9.565821146    10.342846466     4.557123234
 C       -8.285489503    10.659076380     5.034558830
 C       -8.084297221    11.921422633     5.597983978
 C       -9.118692325    12.844639271     5.686984731
 C      -11.367869986    14.472383193     6.341388182
 C       -7.247406649     9.632672983     4.951788569
 C       -5.981118556     9.778839726     5.362966131
Si       -4.697407815     8.477236078     5.248766848
 C       -3.203966294     9.213294562     4.463514542
 C       -2.641794632    10.390425360     4.977177931
 C       -1.511977053    10.951891213     4.387276128
 C       -0.910963931    10.349421439     3.274146973
 C       -1.471101621     9.175519899     2.767102166
 C       -2.603214285     8.613610459     3.353786011
 C        0.271412841    10.962771938     2.679656983
 C        0.917178066    10.464923423     1.611380614
 C        2.099445185    11.056165492     0.997257199
 C        2.691286886    12.228836470     1.472578858
 C        3.822828933    12.757803601     0.851851557
 C        4.386691090    12.122885717    -0.259039616
 C        3.792656735    10.947881488    -0.739424188
 C        2.661702249    10.424094222    -0.120246973
Si        5.879319298    12.806970277    -1.090052281
 C        6.715214767    14.105701093    -0.044193876
 C        7.080043871    11.373009408    -1.442641374
 C        5.367144994    13.589411765    -2.748210544
 C       -4.240449800     7.856586924     6.991425948
 C       -5.384511398     6.975612480     4.296421735
 C       -3.184565401    13.405187939     1.058489509
 C       -3.711235785    13.241877363    -1.989637494
 C       -0.626710314    -0.911568835    -1.548546190
 C       -0.649825524    -0.915856222     1.537481127
 H        1.123690074     2.655263302    -0.805235838
 H        0.206808941     4.904169091    -0.793237307
 H       -3.514146046     3.424069354     0.784181988
 H       -2.634795030     1.157099877     0.796755150
 H       -3.332861097     5.709739506     0.384779546
 H       -0.645087785     6.749905335    -0.748244683
 H       -0.492945762     9.061164884    -1.141221852
 H       -1.408270971    11.314578840    -1.123928616
 H       -5.143008961     9.741673366     0.471502578
 H       -4.197107192     7.500941247     0.396955905
 H       -6.422388123    11.685058906    -0.665195065
 H       -5.946920787    13.826342825     1.556301500
 H       -7.717799870    14.584500863     2.744275134
 H      -10.092866340    14.629661913     3.313817666
 H      -10.878248728    11.767002536     0.166725965
 H       -8.483815583    11.625453835    -0.284297711
 H      -14.032323774    12.761323588     1.528700520
 H      -12.785633369    11.584714291     1.071497423
 H      -12.971749499    13.099967714     0.127441279
 H      -12.305441397    15.047081988     6.402528248
 H      -10.557313705    15.193314803     6.126863305
 H      -11.179473419    14.014248389     7.327298674
 H      -11.557311330    10.999190191     4.167253639
 H       -9.750647188     9.363907561     4.113351025
 H       -7.096845397    12.195909475     5.971172338
 H       -8.921696098    13.816523518     6.125121223
 H       -7.619497010     8.696448199     4.511171915
 H       -5.629255662    10.725075956     5.800274169
 H       -3.071847419    10.909508952     5.838250398
 H       -1.092421486    11.867554253     4.797553781
 H       -1.031499416     8.686151691     1.896948244
 H       -2.989521650     7.694515176     2.900868502
 H        0.613824759    11.878230500     3.168153642
 H        0.562304617     9.547615022     1.128843044
 H        2.272714115    12.740191750     2.337287063
 H        4.243456591    13.676558426     1.269312284
 H        4.190714575    10.409260293    -1.603756850
 H        2.213951409     9.510662133    -0.507408289
 H      -11.760461611    15.180932001     3.036549279
 H      -13.201226860    15.100895170     1.996171121
 H      -13.624778162    15.097552114     4.520256450
 H      -14.434355685    13.792324977     3.639665819
 H      -13.438851856    12.943136678     5.766851343
 H      -12.792523267    12.137196424     4.309277921
 H        2.263439900    -1.029203498     0.048353795
 H        2.259431401     0.550400338     0.873887274
 H        2.276523198     0.473192930    -0.908570807
 H        7.627654904    14.486749085    -0.536657929
 H        7.015093868    13.691984034     0.935841887
 H        6.052967946    14.969090604     0.142820448
 H        6.522977932    10.663586867    -2.121557136
 C        8.363217952    11.810767909    -2.171061145
 C        7.465149353    10.599708755    -0.168413721
 H        6.308689534    14.038338103    -3.178507713
 C        4.816488912    12.573604174    -3.765117355
 C        4.335954391    14.719515416    -2.573228656
 H       -3.458498449     7.058067819     6.831232670
 C       -3.625254709     8.939321496     7.895175782
 C       -5.433239343     7.218356734     7.726675938
 H       -6.321086080     6.686360216     4.859315187
 C       -5.791679372     7.296378622     2.847196534
 C       -4.452316861     5.750299451     4.292157699
 H       -3.621129132    14.444139974     1.021087330
 C       -3.453656058    12.814802871     2.453322227
 C       -1.662485943    13.518575800     0.860825941
 H       -2.587720534    13.283164025    -2.088212279
 C       -4.260917532    12.426476844    -3.174023350
 C       -4.249630534    14.680784514    -2.077244669
 H       -0.158822085    -1.937505527    -1.512162461
 C       -2.156001544    -1.084664201    -1.576322789
 C       -0.182836548    -0.230610796    -2.856203541
 H       -1.774094449    -0.931221547     1.437146605
 C       -0.167582031    -2.374473513     1.632409938
 C       -0.303164138    -0.187005129     2.848401451
 H        8.170434237    12.309209080    -3.129834236
 H        8.982262261    10.931376265    -2.401130866
 H        8.991851092    12.478628456    -1.567215318
 H        6.596546989    10.208221295     0.380492282
 H        8.057541402    11.199609539     0.535161188
 H        8.082317994     9.727909244    -0.428138242
 H        5.530985399    11.780385120    -4.018889915
 H        4.574758229    13.081828922    -4.710036875
 H        3.885493284    12.095360277    -3.429378358
 H        4.687128023    15.533904497    -1.926502087
 H        3.376965567    14.363811675    -2.169549507
 H        4.109016889    15.176637123    -3.547008509
 H       -2.683052147     9.343744573     7.500020062
 H       -3.381565189     8.513649417     8.879216517
 H       -4.305131000     9.780195695     8.084693726
 H       -5.864710474     6.360261298     7.195814569
 H       -6.245679882     7.932471840     7.922754773
 H       -5.112679958     6.839728914     8.707611137
 H       -6.510316990     8.124621592     2.765278746
 H       -6.272338907     6.422500122     2.387410795
 H       -4.934052436     7.556266052     2.210874083
 H       -4.214027605     5.383422420     5.298802422
 H       -3.498861665     5.927166431     3.775206403
 H       -4.933788225     4.912309396     3.768540178
 H       -4.516855968    12.774359710     2.726337046
 H       -2.956826798    13.418489274     3.224079420
 H       -3.059959044    11.790568543     2.564821634
 H       -1.371053351    13.938469992    -0.109094201
 H       -1.147595126    12.551614625     0.977917794
 H       -1.233933954    14.182675110     1.624543794
 H       -3.878219114    11.396814190    -3.207179713
 H       -3.965203873    12.894081559    -4.123545742
 H       -5.358124361    12.374084144    -3.184403897
 H       -3.826878754    15.349263042    -1.316128070
 H       -5.344699025    14.733266688    -1.994847028
 H       -3.992507702    15.121351698    -3.050607451
 H       -2.544966156    -1.657124068    -0.724754237
 H       -2.455206782    -1.637185065    -2.478863288
 H       -2.693978769    -0.126593399    -1.612259789
 H        0.906872102    -0.144812013    -2.954946463
 H       -0.609449866     0.775239068    -2.979874610
 H       -0.524118367    -0.817228177    -3.721161635
 H       -0.439892857    -2.980505380     0.758733920
 H       -0.627801693    -2.865708162     2.502085783
 H        0.918344052    -2.458304360     1.772356037
 H       -0.665243520     0.850795919     2.877318632
 H        0.775136072    -0.165778661     3.055408077
 H       -0.771548809    -0.699674934     3.700534845

