187   

Si        0.000000000     0.000000000     0.000000000
 C        1.865144444     0.000000000     0.000000000
 C       -0.678148979     1.711501211     0.000000000
 C        0.120541176     2.803027854    -0.355808812
 C       -0.402654857     4.095969167    -0.352660698
 C       -1.734816831     4.326681885     0.000300303
 C       -2.535144140     3.231447394     0.351980116
 C       -2.015746622     1.939913602     0.350343480
 C       -2.325523334     5.660803759     0.018012874
 C       -1.671558324     6.792195110    -0.295500293
 C       -2.264512981     8.125443114    -0.277049731
 C       -1.466313393     9.222744481    -0.627751820
 C       -1.988778700    10.513307472    -0.624543593
 C       -3.327245786    10.735227730    -0.276986520
 C       -4.126153549     9.642241054     0.073767434
 C       -3.597272426     8.351999167     0.077059821
Si       -4.018902130    12.436036028    -0.271894353
 C       -5.846052330    12.382287834    -0.279040651
 C       -6.654667555    13.051891163     0.551324356
 C       -8.117759513    12.977000362     0.507312624
 C       -8.856536507    13.728572711     1.434016581
 C      -10.242514499    13.691327659     1.432833733
 C      -10.916877169    12.881445189     0.506065398
 C      -10.190057327    12.116000678    -0.410617575
 C       -8.799186386    12.161259446    -0.399264373
 N      -12.352684973    12.908781442     0.581952955
 C      -12.922092493    13.950468615    -0.301508642
 C      -12.979939635    11.586652472     0.408149687
 C      -12.964156708    13.589402706    -1.799641046
 C      -12.923739018    14.838604502    -2.700257020
 N      -11.583618619    15.193938822    -3.208956654
 C      -10.665279899    15.670915018    -2.240998578
 C      -11.057249345    16.758229247    -1.434062877
 C      -10.194328914    17.260101133    -0.473782738
 C       -8.908548730    16.724879918    -0.306627253
 C       -8.512389648    15.670362389    -1.132076488
 C       -9.367020078    15.156385945    -2.100530152
 C      -11.058645245    14.203565040    -4.164548873
 C       -8.038979712    17.294160368     0.723635900
 C       -6.793503083    16.870999186     0.979399234
Si       -5.724478278    17.598132963     2.272841771
 C       -6.094183972    19.378996816     2.543547148
 C       -6.536501919    20.166472859     1.474029125
 C       -6.821937688    21.518029791     1.658775475
 C       -6.659493590    22.117687126     2.911041145
 C       -6.207728993    21.330377682     3.978044830
 C       -5.925762216    19.978352571     3.797185509
 C       -6.945938445    23.528345476     3.150310175
 C       -7.383441336    24.388215673     2.214871021
 C       -7.670485609    25.799104502     2.451906272
 C       -7.513349739    26.401028060     3.702991703
 C       -7.799730338    27.754048339     3.884611714
 C       -8.258132442    28.533374372     2.817893439
 C       -8.417927677    27.931665241     1.562249694
 C       -8.125059680    26.582744385     1.382594064
Si       -8.640696382    30.320282955     3.040406417
 C       -8.705763417    30.789520313     4.844682654
 C       -7.300868756    31.366940994     2.184232573
 C      -10.314234488    30.679032673     2.207244430
 C       -6.008779227    16.650175148     3.900277952
 C       -3.915731399    17.377970157     1.733240942
 C       -3.380875087    13.342794261     1.274507238
 C       -3.466124344    13.400544326    -1.814445581
 C       -0.619265748    -0.917950190    -1.548075887
 C       -0.653516090    -0.908201211     1.540268712
 H        1.169792285     2.685073510    -0.640335501
 H        0.240883813     4.928811276    -0.630101720
 H       -3.575707273     3.389180130     0.629658066
 H       -2.688163159     1.125192798     0.633316055
 H       -3.378285284     5.690573280     0.314475630
 H       -0.619025435     6.763350086    -0.591989264
 H       -0.425516475     9.067370041    -0.905324464
 H       -1.319098580    11.330823871    -0.905506615
 H       -5.177496693     9.758301200     0.357033101
 H       -4.237421551     7.517366938     0.357321594
 H       -6.256393694    11.732181435    -1.070414066
 H       -6.279342411    13.711362486     1.346159856
 H       -8.339670786    14.366735109     2.153058528
 H      -10.819429518    14.282599581     2.143366384
 H      -10.702708196    11.478389272    -1.124084491
 H       -8.244224157    11.554913268    -1.115055847
 H      -14.054197394    11.676412232     0.643943386
 H      -12.537822592    10.885545590     1.137996436
 H      -12.879101394    11.149969717    -0.595676616
 H      -11.824825280    13.997036862    -4.930827286
 H      -10.757963057    13.247236733    -3.707826930
 H      -10.186661288    14.636636862    -4.687799733
 H      -12.038059134    17.206356106    -1.570241279
 H      -10.519409717    18.090638500     0.153832195
 H       -7.517648637    15.231609542    -1.020805925
 H       -9.025574714    14.328107030    -2.713542953
 H       -8.511779843    18.119016528     1.276130270
 H       -6.345386893    16.036544811     0.417517943
 H       -6.675884025    19.754037899     0.468455256
 H       -7.171638014    22.106690141     0.812455990
 H       -6.073259433    21.777613655     4.961069160
 H       -5.575581098    19.416350495     4.667028915
 H       -6.777096067    23.862131054     4.178187843
 H       -7.551568127    24.053917471     1.186729744
 H       -7.162356162    25.815220932     4.550581215
 H       -7.655470165    28.169037163     4.885996536
 H       -8.773370326    28.491242771     0.692346952
 H       -8.253401465    26.133707333     0.399471393
 H      -13.948651391    14.164861353     0.069968642
 H      -12.328796523    14.883283703    -0.146469385
 H      -12.114274235    12.925408872    -2.048412489
 H      -13.873182304    13.000945201    -2.016139690
 H      -13.581163264    14.686352554    -3.587393223
 H      -13.344998964    15.719606358    -2.166738353
 H        2.263016776    -1.029087050     0.055195039
 H        2.260502930     0.555772203     0.869801521
 H        2.275648952     0.466346719    -0.912623155
 H       -8.976920087    31.853029182     4.969967266
 H       -7.733255486    30.633591695     5.343616050
 H       -9.461612154    30.189200580     5.382885069
 H       -7.562330834    32.440885216     2.410900786
 C       -5.892329776    31.089924176     2.741082568
 C       -7.267669626    31.197507809     0.654806200
 H      -10.180061846    30.415831365     1.117687309
 C      -11.450123225    29.803172664     2.766172808
 C      -10.735380763    32.157170846     2.286143822
 H       -5.341465647    17.145732703     4.663264851
 C       -7.464302113    16.766798570     4.387848651
 C       -5.623716720    15.163357001     3.835923846
 H       -3.765018011    16.267701050     1.584543542
 C       -3.616492912    18.080443276     0.396981283
 C       -2.904278297    17.855283780     2.789062135
 H       -3.988191707    14.292369270     1.348520078
 C       -3.608195389    12.522899619     2.557387928
 C       -1.896253934    13.736985318     1.194344446
 H       -2.340143981    13.449159944    -1.765840034
 C       -3.854289876    12.689995032    -3.123028867
 C       -4.007230766    14.841315919    -1.844961451
 H       -0.132727388    -1.935409254    -1.515825689
 C       -2.145053706    -1.119069701    -1.572332448
 C       -0.192372711    -0.225489899    -2.855352193
 H       -1.778265553    -0.913036000     1.443455471
 C       -0.183846380    -2.370778143     1.635689039
 C       -0.296751269    -0.180453895     2.849052711
 H       -5.806625314    31.268049949     3.820731743
 H       -5.160029105    31.755034870     2.261209164
 H       -5.549887478    30.063546924     2.545106522
 H       -8.219855367    31.441682408     0.167203588
 H       -6.979600386    30.183013159     0.344927556
 H       -6.518420135    31.874372145     0.218688900
 H      -11.242914451    28.725783098     2.694084705
 H      -12.374760441    29.976222212     2.197299143
 H      -11.686791030    30.024861708     3.815251547
 H      -10.003001683    32.842448360     1.840106664
 H      -10.926232104    32.494043249     3.313681715
 H      -11.674286935    32.309635407     1.734122797
 H       -7.791457734    17.804795798     4.539316061
 H       -7.579525997    16.265830387     5.359135481
 H       -8.184934457    16.291496748     3.706278068
 H       -4.576009658    14.997414670     3.551741463
 H       -6.256515494    14.586116332     3.146989679
 H       -5.748370942    14.699402379     4.825091104
 H       -4.274402148    17.760290483    -0.423075413
 H       -2.588924818    17.859546843     0.075650456
 H       -3.685837283    19.175584474     0.466157387
 H       -2.991930592    17.326689888     3.746830949
 H       -2.975012731    18.932850868     2.994861199
 H       -1.878221866    17.680106686     2.434550258
 H       -4.663945717    12.275745065     2.736597303
 H       -3.266433788    13.088079752     3.436097170
 H       -3.044889456    11.578511652     2.567892668
 H       -1.663241158    14.392566582     0.345539127
 H       -1.224568840    12.869053455     1.143464681
 H       -1.606062418    14.293433035     2.097840932
 H       -3.472007571    11.662024493    -3.191781711
 H       -3.433322958    13.228610093    -3.983959278
 H       -4.940518829    12.652518277    -3.284628668
 H       -3.707522046    15.439107103    -0.972777790
 H       -5.103499525    14.885676832    -1.920101941
 H       -3.618577425    15.370015668    -2.726886536
 H       -2.524198710    -1.685115203    -0.712118091
 H       -2.434043169    -1.691066378    -2.466104274
 H       -2.699625687    -0.171362510    -1.623788460
 H        0.894786207    -0.112116983    -2.954794996
 H       -0.643751246     0.769591863    -2.978376558
 H       -0.519086792    -0.820025663    -3.720573979
 H       -0.462534458    -2.975061047     0.762778928
 H       -0.647236372    -2.857457763     2.506280922
 H        0.901427297    -2.463996782     1.774385723
 H       -0.650371632     0.860225779     2.877307180
 H        0.782130597    -0.168394524     3.053308456
 H       -0.767519633    -0.687786761     3.703163403

