187   

Si        0.000000000     0.000000000     0.000000000
 C        1.865209488     0.000000000     0.000000000
 C       -0.664659186     1.717218275     0.000000000
 C        0.008938291     2.727649257    -0.696009403
 C       -0.482623233     4.032314603    -0.704780156
 C       -1.660177450     4.356872872    -0.025188556
 C       -2.337262879     3.342664653     0.664290518
 C       -1.849404865     2.038285016     0.673766478
 C       -2.211947740     5.707522816    -0.006563180
 C       -1.663935256     6.766949478    -0.625622433
 C       -2.216193630     8.117578430    -0.606676471
 C       -3.394292003     8.439983673     0.073805252
 C       -3.886824612     9.743881375     0.065853904
 C       -3.208908993    10.755195538    -0.624356472
 C       -2.030584704    10.435469401    -1.309131823
 C       -1.543278398     9.130571728    -1.301680727
Si       -3.861430183    12.475205649    -0.633033897
 C       -2.579942688    13.630321545    -1.236453441
 C       -2.748080195    14.551441944    -2.194264022
 C       -1.698335684    15.461932049    -2.654015186
 C       -1.998277401    16.384955467    -3.666455332
 C       -1.042572094    17.268894453    -4.138203241
 C        0.250772875    17.294544660    -3.570832909
 C        0.552145440    16.368669034    -2.553650473
 C       -0.404739403    15.457172152    -2.125800396
 N        1.209317693    18.196848528    -4.060194399
 C        0.726465399    19.494902012    -4.558110193
 C        2.478963297    18.301840970    -3.324185068
 C        0.055362482    20.354132596    -3.470229592
 C       -0.600417386    21.616475624    -4.055688837
 N        0.333744610    22.669860277    -4.497443471
 C        1.095328617    22.377985879    -5.651473898
 C        0.421939234    21.902814444    -6.797102914
 C        1.128262969    21.604234540    -7.949766471
 C        2.514827953    21.808307839    -8.022943835
 C        3.173846711    22.306500962    -6.897149568
 C        2.480764963    22.596424296    -5.726809675
 C        1.049599886    23.303625882    -3.378500113
 C        3.211436979    21.475040037    -9.267249527
 C        4.528745222    21.626520012    -9.454258438
Si        5.442591717    21.225614645   -10.986039358
 C        6.499491404    22.646947211   -11.479800689
 C        6.234781296    23.931428903   -10.989353955
 C        7.036052627    25.007306450   -11.364067300
 C        8.111224589    24.828635713   -12.244161435
 C        8.368194686    23.545771507   -12.736751736
 C        7.571427190    22.465598606   -12.360515830
 C        8.921708637    25.986658673   -12.606955905
 C        9.979804462    25.950980090   -13.434689530
 C       10.790474693    27.108686818   -13.797700574
 C       10.535489661    28.391635709   -13.306628466
 C       11.336602202    29.470682323   -13.680235656
 C       12.415118927    29.287961324   -14.551270434
 C       12.673121491    28.001846920   -15.045048708
 C       11.869250397    26.927773278   -14.673850344
Si       13.482369922    30.701013668   -15.054500141
 C       13.170335966    32.207159733   -13.999069379
 C       15.300230275    30.156642908   -14.904696414
 C       13.130771756    31.145937372   -16.871578698
 C        6.540163663    19.708303726   -10.646785235
 C        4.251063173    20.811255966   -12.408985021
 C       -5.415631335    12.552932267    -1.726904581
 C       -4.337102253    12.965111845     1.143256985
 C       -0.632585696    -0.895988609    -1.555781787
 C       -0.643758121    -0.936888259     1.527318301
 H        0.934686778     2.534905731    -1.245683614
 H        0.062354860     4.800849644    -1.249864025
 H       -3.257153193     3.572906886     1.198483718
 H       -2.423923020     1.289625506     1.225987585
 H       -3.138582813     5.814867489     0.564965067
 H       -0.737706056     6.659777453    -1.197640427
 H       -3.937778826     7.670459768     0.618591132
 H       -4.811235761     9.936369837     0.617419131
 H       -1.463549179    11.186056517    -1.869535199
 H       -0.627347189     8.899226496    -1.842159435
 H       -1.612053510    13.518043609    -0.720462202
 H       -3.701206755    14.693692262    -2.720676270
 H       -2.998001144    16.401090312    -4.101684035
 H       -1.297204811    17.945101027    -4.949489208
 H        1.535192625    16.348789303    -2.094948476
 H       -0.138398067    14.738421815    -1.348851815
 H        3.147644557    19.017805289    -3.833125977
 H        2.991466274    17.322303769    -3.340954643
 H        2.355078520    18.625259082    -2.278470710
 H        0.322447111    23.593366122    -2.600144755
 H        1.526531858    24.235223019    -3.733229311
 H        1.817686927    22.664105059    -2.915676804
 H       -0.657772806    21.775998649    -6.776846556
 H        0.593374784    21.218254425    -8.818259595
 H        4.251557697    22.475124937    -6.927311118
 H        3.031002911    22.976895694    -4.872177689
 H        2.541534013    21.086533369   -10.045630987
 H        5.176610346    22.013019345    -8.649730664
 H        5.404242465    24.130883097   -10.304330966
 H        6.819190937    25.998164921   -10.969251175
 H        9.197077326    23.380252095   -13.422364354
 H        7.821762107    21.485873333   -12.776689594
 H        8.605761068    26.927865993   -12.147422025
 H       10.295207744    25.009745516   -13.894374134
 H        9.703620064    28.560223577   -12.625142815
 H       11.087339391    30.450493445   -13.263525915
 H       13.502608303    27.798925510   -15.728434398
 H       12.084626131    25.936758307   -15.068787409
 H        1.590735313    20.037839857    -5.008387626
 H        0.025852602    19.314007105    -5.405070379
 H       -0.717594931    19.752855003    -2.949239992
 H        0.792126770    20.623846744    -2.693122262
 H       -1.258881734    21.343125968    -4.911150311
 H       -1.275950409    22.071708066    -3.293475856
 H        2.263825720    -1.028964403     0.048358812
 H        2.258263479     0.551137347     0.874097710
 H        2.277371388     0.475011764    -0.907125495
 H       13.843568622    33.036720294   -14.280025367
 H       13.345524795    31.985596758   -12.930623802
 H       12.133143967    32.571316032   -14.102593339
 H       15.417575886    29.276434327   -15.601752828
 C       16.303521789    31.239367731   -15.340297933
 C       15.658417227    29.682648824   -13.484549877
 H       13.764084587    32.053877461   -17.090629426
 C       13.524506672    30.039786410   -17.866643932
 C       11.657232426    31.522784630   -17.111365936
 H        7.055561951    19.472326532   -11.622416144
 C        7.625629591    19.990121234    -9.592678618
 C        5.735141758    18.468246415   -10.220703387
 H        3.563267369    20.008749621   -12.013023623
 C        3.391423995    22.019250645   -12.824125666
 C        4.958271870    20.256417269   -13.658213510
 H       -5.698346957    13.644212900    -1.783045456
 C       -5.148707402    12.050765323    -3.157880363
 C       -6.616461867    11.781931974    -1.150577556
 H       -5.144813873    12.242854838     1.458378396
 C       -3.163046981    12.822877618     2.128278823
 C       -4.907105829    14.390868829     1.242687869
 H       -0.174063110    -1.926275566    -1.526558483
 C       -2.163583523    -1.053662342    -1.581465258
 C       -0.183967036    -0.211355164    -2.859709491
 H       -1.770117242    -0.907434680     1.458186754
 C       -0.216030710    -2.415316295     1.564153122
 C       -0.232287684    -0.266556973     2.850887228
 H       16.156088496    31.578190815   -16.373928047
 H       17.328235183    30.843135799   -15.290386310
 H       16.285872050    32.125485708   -14.692005202
 H       15.015677207    28.866389707   -13.124782234
 H       15.617566293    30.488453402   -12.739740072
 H       16.686793954    29.294622734   -13.464466641
 H       14.586626571    29.768239047   -17.818991075
 H       13.341417745    30.379145836   -18.896699268
 H       12.934440196    29.121354663   -17.739065123
 H       11.316094698    32.365117721   -16.495860243
 H       10.968247743    30.683606610   -16.937660033
 H       11.511782033    31.828298620   -18.157468157
 H        8.272247506    20.840944213    -9.850196362
 H        8.289758817    19.119590861    -9.494053272
 H        7.212810153    20.177248770    -8.592092991
 H        4.997145858    18.150185881   -10.968449709
 H        5.203749250    18.608290344    -9.268246294
 H        6.410165258    17.613176403   -10.072641383
 H        2.817720367    22.457462408   -11.996109801
 H        2.656435110    21.716733853   -13.583166744
 H        3.984310275    22.828115864   -13.275490145
 H        5.517895834    19.331772972   -13.467978799
 H        5.647155101    20.979498927   -14.117236719
 H        4.215877212    20.010489580   -14.431526449
 H       -4.327034876    12.576776163    -3.663266945
 H       -6.040640219    12.197713789    -3.782676589
 H       -4.919942694    10.975760702    -3.195498463
 H       -6.928617005    12.136941583    -0.160331997
 H       -6.436304271    10.700070464    -1.080309529
 H       -7.489873077    11.902597347    -1.807955640
 H       -2.730769583    11.812319819     2.146618261
 H       -3.503884304    13.028583261     3.152891263
 H       -2.346881300    13.530115618     1.927032721
 H       -5.804104562    14.544778362     0.629214495
 H       -4.176673059    15.163729781     0.963424300
 H       -5.202531972    14.607132227     2.279222981
 H       -2.556778515    -1.625646222    -0.731431965
 H       -2.470631929    -1.598680131    -2.485853873
 H       -2.692225280    -0.090132180    -1.610542007
 H        0.906239981    -0.133314902    -2.958433773
 H       -0.604437337     0.797723191    -2.978338475
 H       -0.529680838    -0.791363768    -3.727478686
 H       -0.540520453    -2.983929432     0.683083805
 H       -0.666810156    -2.914662729     2.434137279
 H        0.869621383    -2.545168531     1.664824379
 H       -0.538453349     0.786770185     2.920839857
 H        0.850220095    -0.306938777     3.032107416
 H       -0.706595585    -0.781930681     3.698148464

