187   

Si        0.000000000     0.000000000     0.000000000
 C        1.864518385     0.000000000     0.000000000
 C       -0.685858459     1.708034726     0.000000000
 C        0.142360238     2.823500852    -0.157902319
 C       -0.394246335     4.110997169    -0.155475305
 C       -1.763992308     4.312765034     0.030690614
 C       -2.592472589     3.194302066     0.193330610
 C       -2.062913023     1.907568910     0.170114035
 C       -2.370817672     5.638657628     0.041024572
 C       -1.698266951     6.790457268    -0.123362958
 C       -2.310308972     8.115084883    -0.112201355
 C       -3.681880928     8.304842094     0.074929167
 C       -4.230322851     9.587139171     0.079369809
 C       -3.428866770    10.702835673    -0.181667085
 C       -2.056230628    10.513176142    -0.396116571
 C       -1.503595939     9.236283660    -0.349500254
Si       -4.109788420    12.412786689    -0.186193008
 C       -3.660563490    13.279270038    -1.735194969
 C       -3.472794149    12.667235122    -2.913093851
 C       -3.113518504    13.355025291    -4.154764532
 C       -2.942565569    12.609588633    -5.329651407
 C       -2.602113595    13.221022685    -6.528220434
 C       -2.491062339    14.622641485    -6.605137133
 C       -2.676175028    15.375575180    -5.426437366
 C       -2.960294813    14.743558635    -4.225185655
 N       -2.149791997    15.295134355    -7.791020926
 C       -1.935344940    14.532557386    -9.024828483
 C       -2.786586371    16.605334680    -8.005811711
 C       -3.219228342    14.118157773    -9.770021425
 C       -2.869419651    13.393491734   -11.087581414
 N       -3.375906080    12.006854552   -11.184753146
 C       -3.035778196    11.173706623   -10.091826922
 C       -1.708555411    11.194054317    -9.614988977
 C       -1.338190315    10.392950628    -8.547766046
 C       -2.238138349     9.474893727    -7.987166575
 C       -3.540261092     9.426818685    -8.488771600
 C       -3.943348910    10.266838526    -9.520640264
 C       -4.778706035    11.957218158   -11.632538687
 C       -1.791068591     8.655197926    -6.861108673
 C       -2.551283261     7.744863097    -6.239119222
Si       -1.986279408     6.723981918    -4.832578395
 C       -2.278308154     4.919752695    -4.964518869
 C       -2.492698639     4.287628192    -6.191563044
 C       -2.711190013     2.910462842    -6.245770774
 C       -2.708000029     2.139233659    -5.080644741
 C       -2.486457990     2.775406428    -3.851515935
 C       -2.273736249     4.148741135    -3.792432481
 C       -2.931652702     0.697866705    -5.089535830
 C       -3.155735111    -0.036912915    -6.191991756
 C       -3.378858724    -1.478651388    -6.195032788
 C       -3.379268596    -2.240713967    -5.024322047
 C       -3.596194808    -3.617236568    -5.066081822
 C       -3.809424135    -4.265071899    -6.286803079
 C       -3.808012174    -3.504237748    -7.463876352
 C       -3.598004691    -2.128712300    -7.416889584
Si       -4.097184572    -6.081406637    -6.358377963
 C       -3.629118968    -6.912368970    -4.754894393
 C       -5.938096175    -6.414955952    -6.708541526
 C       -3.069615543    -6.794777493    -7.793142392
 C       -0.137767477     7.017287173    -4.490732356
 C       -3.011481350     7.402495685    -3.376188354
 C       -6.010160139    12.371856493    -0.062058961
 C       -3.429535868    13.383385195     1.299768190
 C       -0.607624487    -0.941463505    -1.538622129
 C       -0.661735597    -0.889332553     1.547624354
 H        1.222707705     2.727755121    -0.296935853
 H        0.270520432     4.961692316    -0.294578319
 H       -3.663251585     3.329870586     0.334122820
 H       -2.758644668     1.072861434     0.294204880
 H       -3.454989247     5.644164915     0.189333491
 H       -0.612378893     6.788424167    -0.258802806
 H       -4.334146630     7.449882344     0.243270612
 H       -5.302593608     9.673350444     0.274393771
 H       -1.383531747    11.349569253    -0.614379093
 H       -0.434406632     9.109692785    -0.508664981
 H       -3.568980585    14.370755903    -1.636969960
 H       -3.563776270    11.577921319    -3.036134819
 H       -3.060758276    11.523520822    -5.305501521
 H       -2.454504572    12.600964947    -7.410644466
 H       -2.574957607    16.455831520    -5.446406610
 H       -3.076820544    15.348658817    -3.325409866
 H       -2.580977301    16.975957650    -9.022833407
 H       -2.352168680    17.339267530    -7.302542030
 H       -3.878712104    16.580998336    -7.857856945
 H       -4.890876461    12.563615221   -12.547469919
 H       -5.499448693    12.319865926   -10.882557580
 H       -5.037666788    10.919532913   -11.909319596
 H       -0.971925491    11.840302410   -10.084400597
 H       -0.320443987    10.457297015    -8.160423661
 H       -4.262136264     8.728052327    -8.063625059
 H       -4.970963470    10.214456062    -9.865637968
 H       -0.750285074     8.858452656    -6.573218174
 H       -3.594122596     7.561895203    -6.541261511
 H       -2.501825382     4.841861546    -7.134238453
 H       -2.882185938     2.439339981    -7.211502822
 H       -2.480456763     2.194728556    -2.929080841
 H       -2.108406508     4.589095841    -2.801591463
 H       -2.904809949     0.226434732    -4.101044287
 H       -3.181496978     0.432843884    -7.179184965
 H       -3.213641388    -1.757803288    -4.061417388
 H       -3.587092626    -4.158222934    -4.116063261
 H       -3.969033234    -3.956721890    -8.446312281
 H       -3.602684333    -1.554882987    -8.341580891
 H       -1.297515565    15.160981927    -9.691110121
 H       -1.323602753    13.631411783    -8.780590669
 H       -3.837620600    13.471848498    -9.116822797
 H       -3.846507852    15.002745397    -9.973015242
 H       -3.258041003    13.970780752   -11.954823059
 H       -1.766163311    13.351509828   -11.240216374
 H        2.262032639    -1.029952639     0.039407467
 H        2.262673368     0.541750159     0.876686155
 H        2.273266712     0.478809310    -0.907634685
 H       -3.757874886    -8.007389505    -4.821952415
 H       -4.247941395    -6.555821996    -3.913081681
 H       -2.570857024    -6.717593057    -4.502755814
 H       -6.055717701    -7.536752999    -6.680647102
 C       -6.861382063    -5.811262916    -5.634232984
 C       -6.401562573    -5.921328957    -8.090738600
 H       -3.446491919    -6.284429679    -8.726988986
 C       -1.569080831    -6.478753537    -7.657274568
 C       -3.247720798    -8.311803785    -7.981487260
 H       -0.006742312     8.136418597    -4.425736478
 C        0.348292483     6.407050433    -3.164724022
 C        0.754232802     6.488647011    -5.629334130
 H       -2.487616641     7.059232074    -2.438175110
 C       -3.065397391     8.939070181    -3.368237873
 C       -4.448908370     6.854724789    -3.342332646
 H       -6.251166081    11.740770846     0.841167837
 C       -6.636940674    13.761475891     0.151863055
 C       -6.663441986    11.722188782    -1.295927231
 H       -3.918116546    14.399825039     1.250402079
 C       -3.794174919    12.742637777     2.650661242
 C       -1.905424708    13.589273640     1.241290017
 H       -0.086265312    -1.942287899    -1.498747985
 C       -2.124935283    -1.198480168    -1.546279650
 C       -0.211652184    -0.253081400    -2.856255042
 H       -1.786915979    -0.868119217     1.460786617
 C       -0.224147107    -2.361586578     1.644000280
 C       -0.278719031    -0.165757195     2.851324302
 H       -6.651024160    -6.178368518    -4.621561992
 H       -7.907667881    -6.075012092    -5.845213902
 H       -6.821153253    -4.712764243    -5.605181019
 H       -5.848308233    -6.373707183    -8.923418835
 H       -6.338332096    -4.829059699    -8.196856721
 H       -7.458297978    -6.182676552    -8.247549331
 H       -1.358245510    -5.403067492    -7.570970619
 H       -1.028210337    -6.826915576    -8.548773705
 H       -1.101525780    -6.977023125    -6.797771070
 H       -4.290259615    -8.609360722    -8.152979166
 H       -2.868302586    -8.896241092    -7.132862799
 H       -2.683276655    -8.648974055    -8.863116498
 H       -0.180208480     6.806858345    -2.289422001
 H        1.413162960     6.633281229    -3.014298492
 H        0.260658974     5.311053962    -3.139458144
 H        0.500284044     6.896064861    -6.616986295
 H        0.730282594     5.392264032    -5.712334571
 H        1.802874379     6.759719581    -5.444501012
 H       -2.075503912     9.408743252    -3.291809843
 H       -3.631877395     9.282540590    -2.487694788
 H       -3.573122997     9.357428697    -4.247779177
 H       -4.495796306     5.757865838    -3.296830428
 H       -5.052558294     7.177473763    -4.200359861
 H       -4.964742767     7.222617470    -2.443288886
 H       -6.293327575    14.258541618     1.067901165
 H       -7.728776939    13.670286007     0.245492695
 H       -6.458172858    14.445361366    -0.689449442
 H       -6.305441385    10.704734345    -1.502594465
 H       -6.516413465    12.312046418    -2.213286687
 H       -7.749734999    11.643480589    -1.150552842
 H       -4.875837494    12.645483048     2.809903741
 H       -3.416656717    13.363286532     3.476136469
 H       -3.347377438    11.747411012     2.787182331
 H       -1.561425753    14.051736472     0.306102455
 H       -1.344524890    12.654186132     1.378991254
 H       -1.585418024    14.259328334     2.052045670
 H       -2.488889845    -1.711425085    -0.647097414
 H       -2.385251082    -1.854901706    -2.391355782
 H       -2.712299957    -0.278028207    -1.668668387
 H        0.871602211    -0.118935737    -2.971237808
 H       -0.678892786     0.733985371    -2.988555237
 H       -0.533913674    -0.862875869    -3.714031195
 H       -0.526005077    -2.962697810     0.776542010
 H       -0.688273448    -2.834429824     2.521771057
 H        0.860357027    -2.478442224     1.770893249
 H       -0.613359143     0.880922286     2.880925997
 H        0.801979775    -0.173763830     3.045655684
 H       -0.750996543    -0.662649815     3.710861397

