187   

Si        0.000000000     0.000000000     0.000000000
 C        1.864927822     0.000000000     0.000000000
 C       -0.683584174     1.709222622     0.000000000
 C        0.098790351     2.795444102    -0.405197435
 C       -0.425692441     4.087822377    -0.402663020
 C       -1.743377115     4.323259726    -0.001741284
 C       -2.527695343     3.233246792     0.398743842
 C       -2.006910613     1.942228381     0.397901059
 C       -2.334768351     5.657045304     0.017292072
 C       -1.695134632     6.783598712    -0.339895728
 C       -2.288032825     8.116744429    -0.320284752
 C       -3.606329870     8.348940095     0.081262357
 C       -4.133687569     9.639942242     0.084919095
 C       -3.356215817    10.725982685    -0.329135307
 C       -2.034680575    10.496312539    -0.734819450
 C       -1.507429137     9.207911976    -0.724790957
Si       -4.024160705    12.439526063    -0.335218232
 C       -3.353980607    13.412822839    -1.732548326
 C       -2.992304611    12.873610501    -2.904400983
 C       -2.454541246    13.635863695    -4.032994256
 C       -2.114148288    12.945829173    -5.207531942
 C       -1.601704884    13.616771915    -6.304736759
 C       -1.455243361    15.018998642    -6.272916058
 C       -1.796661677    15.711935299    -5.102910307
 C       -2.272300607    15.019147471    -3.993688669
 N       -0.923874248    15.648287886    -7.429600185
 C       -1.730633749    15.449438224    -8.654155415
 C       -0.491651421    17.046107585    -7.258597940
 C       -3.159334647    16.017857584    -8.588436474
 C       -4.166058963    14.972469097    -8.069941446
 N       -5.457543569    15.552672050    -7.668135058
 C       -6.211968495    16.199182207    -8.659794159
 C       -6.154757782    15.741980681    -9.995061416
 C       -6.893247978    16.369588030   -10.983907750
 C       -7.751029903    17.437742087   -10.683453685
 C       -7.831324608    17.868389378    -9.356491045
 C       -7.085387192    17.261109374    -8.354522017
 C       -5.418761988    16.172294428    -6.333680915
 C       -8.506466761    18.062128228   -11.770284731
 C       -9.354467757    19.086345880   -11.608931915
Si      -10.314042422    19.891007930   -12.940100821
 C      -12.086226347    20.012163169   -12.461415632
 C      -12.585849801    19.279659784   -11.378122815
 C      -13.928910655    19.376476506   -11.021531162
 C      -14.805116419    20.198061930   -11.742123265
 C      -14.303737485    20.924021768   -12.826788535
 C      -12.959647660    20.832588647   -13.184346765
 C      -16.203341262    20.266374195   -11.330061106
 C      -17.142565829    21.015887695   -11.931711249
 C      -18.540839515    21.084782584   -11.520359094
 C      -19.044924415    20.360621686   -10.436977206
 C      -20.389467893    20.456559311   -10.078498350
 C      -21.259610006    21.284005091   -10.795178403
 C      -20.756749572    22.010512334   -11.883076204
 C      -19.415559520    21.908637685   -12.241609570
Si      -23.036357685    21.420326831   -10.333297425
 C      -23.352992340    20.749760191    -8.621722172
 C      -23.544252037    23.252721046   -10.424938698
 C      -24.086726234    20.440875953   -11.582510419
 C       -9.626780077    21.644790243   -13.212607370
 C      -10.165038911    18.914606429   -14.565953409
 C       -5.921348363    12.415400484    -0.470977701
 C       -3.534864074    13.295705043     1.290676089
 C       -0.621612534    -0.916037329    -1.548461598
 C       -0.650013137    -0.914961802     1.538131709
 H        1.136289660     2.673878879    -0.728714549
 H        0.205280904     4.916503270    -0.718875676
 H       -3.556811758     3.394512728     0.714221013
 H       -2.666740377     1.131728799     0.719891820
 H       -3.375154675     5.690836061     0.354021999
 H       -0.654795444     6.750190533    -0.676493378
 H       -4.234509683     7.518981029     0.399311818
 H       -5.168574901     9.759079287     0.417099792
 H       -1.380493089    11.309435675    -1.067468207
 H       -0.477489553     9.049137792    -1.039141485
 H       -3.279807340    14.495121484    -1.550781775
 H       -3.066017986    11.795374758    -3.109049903
 H       -2.240993364    11.863126607    -5.252982404
 H       -1.300642356    13.064765956    -7.192572994
 H       -1.693825123    16.791259336    -5.047434794
 H       -2.516581934    15.575535677    -3.088031886
 H        0.070143863    17.355702836    -8.157547685
 H        0.206962554    17.110575466    -6.405639833
 H       -1.313361575    17.761672740    -7.099914509
 H       -4.785680413    15.570061781    -5.656199541
 H       -6.437323378    16.172275245    -5.904497402
 H       -5.028395293    17.202195144    -6.338142098
 H       -5.527001278    14.895178659   -10.256823324
 H       -6.815496416    16.013686547   -12.011753710
 H       -8.492369138    18.696126779    -9.094062113
 H       -7.178562870    17.626753211    -7.337186692
 H       -8.313355836    17.599942408   -12.747700716
 H       -9.521452812    19.534325131   -10.615569248
 H      -11.949256511    18.615933785   -10.783849499
 H      -14.299461362    18.802573558   -10.174209483
 H      -14.963614568    21.569147074   -13.403542596
 H      -12.624826793    21.425454563   -14.040077934
 H      -16.456221912    19.645541312   -10.465499523
 H      -16.889570954    21.636003344   -12.796672545
 H      -18.387914294    19.711645652    -9.860744327
 H      -20.725180241    19.866030702    -9.221568128
 H      -21.390004715    22.672380716   -12.480483286
 H      -19.044183997    22.478726004   -13.091071206
 H       -1.175664996    15.916178315    -9.499754703
 H       -1.754222106    14.359049728    -8.877163055
 H       -3.185388051    16.916775029    -7.944646996
 H       -3.474867665    16.371326040    -9.588841741
 H       -4.350009812    14.191766644    -8.841994494
 H       -3.748622373    14.425771965    -7.191462374
 H        2.262349232    -1.029165764     0.057392046
 H        2.260152489     0.557576474     0.868755830
 H        2.276140119     0.464542118    -0.913179794
 H      -24.410920119    20.881408421    -8.332267306
 H      -22.735588093    21.275377570    -7.870593480
 H      -23.121549681    19.672396933    -8.554005965
 H      -23.374509493    23.567567628   -11.495665537
 C      -25.027219087    23.496207772   -10.092802850
 C      -22.674808677    24.150988417    -9.526535587
 H      -25.151606988    20.525765829   -11.219415104
 C      -24.024659580    21.004687071   -13.013422250
 C      -23.713987933    18.947577790   -11.624435654
 H      -10.228317006    22.085490688   -14.059389789
 C       -9.811136514    22.547975352   -11.980050874
 C       -8.144452602    21.653292961   -13.625084695
 H       -9.058524920    18.777906095   -14.741614817
 C      -10.813222088    17.521044605   -14.472443932
 C      -10.750203410    19.648652002   -15.785552821
 H       -6.292174926    11.834974668     0.422603114
 C       -6.551151863    13.818948904    -0.419283036
 C       -6.405991425    11.699283467    -1.744296173
 H       -3.974746669    14.333413489     1.242860697
 C       -4.102030946    12.592539532     2.536005029
 C       -2.008985215    13.429711570     1.442686596
 H       -0.139531788    -1.935530524    -1.515792940
 C       -2.148388457    -1.110308600    -1.571526218
 C       -0.191920184    -0.226369612    -2.856197164
 H       -1.774765387    -0.922560898     1.442074993
 C       -0.176802500    -2.376805632     1.628032543
 C       -0.294084330    -0.191152611     2.849297815
 H      -25.715445754    22.939020801   -10.741385321
 H      -25.271988172    24.559891085   -10.227575161
 H      -25.278397657    23.253595041    -9.051766282
 H      -21.599885316    24.071192334    -9.743448116
 H      -22.811697801    23.948449513    -8.456035217
 H      -22.940980947    25.206743576    -9.678142174
 H      -24.360304636    22.046809462   -13.086550763
 H      -24.684180821    20.423733654   -13.674514099
 H      -23.019277486    20.941895940   -13.453429420
 H      -23.813484497    18.445353228   -10.653624719
 H      -22.690466655    18.772925078   -11.986406273
 H      -24.379913365    18.412316806   -12.316396955
 H      -10.857478104    22.628842366   -11.652928725
 H       -9.482462437    23.571308673   -12.210394674
 H       -9.216933529    22.220313398   -11.116119661
 H       -7.946765324    21.096719610   -14.550154114
 H       -7.481789015    21.249516549   -12.846124052
 H       -7.810421961    22.684318842   -13.808956060
 H      -10.423797458    16.908387450   -13.647626470
 H      -10.624916951    16.953884768   -15.394618502
 H      -11.905866828    17.567189723   -14.356828390
 H      -10.282485607    20.623062277   -15.974635743
 H      -11.835666824    19.803497696   -15.711121327
 H      -10.590027934    19.051063388   -16.694829277
 H       -6.314291338    14.370085566     0.499646121
 H       -7.647544159    13.739166700    -0.453359049
 H       -6.263426629    14.448222931    -1.273052848
 H       -6.043382089    10.665548586    -1.830375963
 H       -6.120107590    12.226453585    -2.666477354
 H       -7.503624234    11.641178977    -1.750522793
 H       -5.198281447    12.541686319     2.547000516
 H       -3.811501056    13.141932560     3.443370462
 H       -3.718422756    11.569795384     2.662646473
 H       -1.533477990    13.974200525     0.615640014
 H       -1.502302361    12.458072635     1.535695899
 H       -1.768917295    13.988881859     2.358272289
 H       -2.527461503    -1.684312347    -0.716532782
 H       -2.442045576    -1.671163602    -2.470822094
 H       -2.699485328    -0.159962560    -1.610878672
 H        0.895831586    -0.120650623    -2.957114373
 H       -0.636770272     0.771701958    -2.978525827
 H       -0.524014470    -0.818604260    -3.720988043
 H       -0.456660347    -2.979142118     0.754135805
 H       -0.636744332    -2.867021983     2.498478573
 H        0.909043421    -2.468084578     1.763482869
 H       -0.649894204     0.848582050     2.881872460
 H        0.784971982    -0.177335845     3.052615491
 H       -0.762780573    -0.703021079     3.701841497

