187   

Si        0.000000000     0.000000000     0.000000000
 C        1.865392632     0.000000000     0.000000000
 C       -0.680538866     1.709933035     0.000000000
 C        0.129839084     2.811311951    -0.292702333
 C       -0.398850212     4.102111362    -0.289195190
 C       -1.748402818     4.320919843    -0.000816860
 C       -2.560087048     3.215538935     0.288234204
 C       -2.034869733     1.926437728     0.288522676
 C       -2.345566903     5.652021945     0.014669793
 C       -1.682298093     6.792661266    -0.240440692
 C       -2.282487768     8.122679400    -0.224164494
 C       -3.634044182     8.333998929     0.065351802
 C       -4.167706077     9.621125358     0.070328388
 C       -3.355174790    10.728069119    -0.203144897
 C       -2.001929153    10.520645197    -0.492736046
 C       -1.474687194     9.231131696    -0.507813870
Si       -4.072491327    12.421505139    -0.193278556
 C       -2.752887888    13.683729156    -0.143109590
 C       -2.630570475    14.749598182    -0.945741361
 C       -1.538221274    15.719947041    -0.840826815
 C       -1.490062764    16.806710436    -1.724404187
 C       -0.470773849    17.745037621    -1.654479398
 C        0.524940764    17.649534088    -0.660497775
 C        0.477568405    16.555384987     0.226729492
 C       -0.525876690    15.603613657     0.116444036
 N        1.567303406    18.588034720    -0.569722114
 C        1.409208669    19.889378014    -1.232080216
 C        2.269718158    18.680782795     0.721335028
 C        0.392964702    20.815348579    -0.539804363
 C        0.224957889    22.127194180    -1.330687054
 N       -1.182849235    22.530352506    -1.525253326
 C       -1.996364793    21.574561023    -2.177036075
 C       -1.486969736    20.903714314    -3.308879805
 C       -2.257544690    19.961862540    -3.970554208
 C       -3.575368521    19.696637081    -3.571453878
 C       -4.087471711    20.383857356    -2.468453029
 C       -3.316867336    21.310377558    -1.776536943
 C       -1.750957533    23.171329238    -0.326929408
 C       -4.348418788    18.692031451    -4.303202023
 C       -5.611977334    18.362075149    -4.006599481
Si       -6.628088467    17.119671260    -4.879610806
 C       -7.371778449    15.978800926    -3.643770542
 C       -6.919496444    15.982021065    -2.320560104
 C       -7.481903268    15.118199037    -1.382809213
 C       -8.503433072    14.235030833    -1.742323602
 C       -8.955783792    14.236071427    -3.068172800
 C       -8.399005591    15.099341186    -4.008471749
 C       -9.113355291    13.317914455    -0.784556888
 C       -8.756184365    13.234826848     0.508211949
 C       -9.345508647    12.330637243     1.487571789
 C      -10.369198850    11.435149752     1.170772248
 C      -10.901094038    10.589128896     2.144196249
 C      -10.402144055    10.606139002     3.450206822
 C       -9.367290238    11.496968523     3.767700494
 C       -8.847709773    12.348308525     2.797731289
Si      -11.088895175     9.498789292     4.749948137
 C      -12.191229118     8.183350629     4.019775618
 C       -9.624432667     8.699198514     5.667160759
 C      -12.100485600    10.523242700     5.994438881
 C       -8.007416213    17.994353567    -5.849060015
 C       -5.555514636    16.111029912    -6.084193808
 C       -5.121464076    12.591422689    -1.771196920
 C       -5.186559478    12.682625030     1.332303616
 C       -0.611742270    -0.923099945    -1.548378339
 C       -0.656159387    -0.905358732     1.540874549
 H        1.192342893     2.703062056    -0.527106388
 H        0.254232858     4.942854953    -0.516105674
 H       -3.614056149     3.363766785     0.515505698
 H       -2.716440448     1.104010269     0.523078523
 H       -3.412345619     5.671358935     0.256166239
 H       -0.615753207     6.774425686    -0.482710834
 H       -4.283329376     7.489255681     0.287274521
 H       -5.233982542     9.725464564     0.295981709
 H       -1.323846361    11.349743898    -0.718483866
 H       -0.421404595     9.087381582    -0.740409854
 H       -2.019638365    13.496208568     0.659711988
 H       -3.342629436    14.979434344    -1.749214440
 H       -2.267661051    16.925021240    -2.482292906
 H       -0.468814181    18.569747950    -2.363640896
 H        1.231644344    16.433257607     0.996976494
 H       -0.525018963    14.758275960     0.806938386
 H        2.994758730    19.510640573     0.707139252
 H        2.849386194    17.753338585     0.884379220
 H        1.588936144    18.829469219     1.575575833
 H       -1.064920591    23.960562650     0.025246152
 H       -1.935652223    22.472988256     0.505018106
 H       -2.698374056    23.672838606    -0.594034668
 H       -0.485021560    21.124050834    -3.666606517
 H       -1.835669503    19.434685746    -4.827082416
 H       -5.107723880    20.191928943    -2.132269135
 H       -3.749079743    21.811000808    -0.915942573
 H       -3.787652452    18.228319106    -5.125219181
 H       -6.149734861    18.861181160    -3.182714209
 H       -6.116915890    16.645305339    -1.979497701
 H       -7.119092157    15.144416189    -0.355013219
 H       -9.751617586    13.558147101    -3.369064912
 H       -8.794184406    15.060207798    -5.027115111
 H       -9.902612846    12.681121068    -1.191380194
 H       -7.966753691    13.882362699     0.907194205
 H      -10.766924150    11.395698389     0.158558009
 H      -11.707876252     9.916592173     1.840926195
 H       -8.936293821    11.551062225     4.771516806
 H       -8.041715839    13.031889305     3.061259877
 H        2.410214143    20.376911115    -1.274437494
 H        1.115240526    19.712984286    -2.293603551
 H       -0.578562377    20.286017043    -0.449765590
 H        0.703402529    21.023227882     0.497911294
 H        0.761529185    22.957636948    -0.821452174
 H        0.695313454    22.052433209    -2.338103910
 H        2.263008238    -1.029467081     0.047519541
 H        2.261355950     0.549435601     0.873400420
 H        2.274818609     0.473007525    -0.909747703
 H      -12.565706028     7.498463045     4.801526382
 H      -11.642840564     7.572845124     3.279580457
 H      -13.069207912     8.620392934     3.512647492
 H       -9.056675868     9.550450657     6.144340653
 C      -10.054228440     7.733788247     6.785627052
 C       -8.660975880     7.968328045     4.714399390
 H      -12.535548185     9.776719760     6.720303564
 C      -11.258751055    11.531749490     6.796575857
 C      -13.266684129    11.275397680     5.327182186
 H       -8.580715052    17.177888938    -6.376870062
 C       -8.988962751    18.744144034    -4.930651501
 C       -7.473217304    18.966666779    -6.915150693
 H       -5.074525662    16.864313750    -6.773079987
 C       -4.438945455    15.332295431    -5.365132872
 C       -6.363980552    15.127416262    -6.948335037
 H       -5.519417528    13.648537178    -1.775486712
 C       -4.288458045    12.388759259    -3.050458607
 C       -6.320571358    11.629409108    -1.817894616
 H       -6.201380845    12.274575155     1.051467031
 C       -4.707140262    11.924363756     2.582601708
 C       -5.345373563    14.170642907     1.697165394
 H       -0.114640321    -1.935475685    -1.516447326
 C       -2.135155203    -1.141352673    -1.574713159
 C       -0.191179150    -0.225955388    -2.855313499
 H       -1.780834259    -0.906171682     1.443612801
 C       -0.191248691    -2.369371601     1.637681331
 C       -0.297888513    -0.177478454     2.849237738
 H      -10.693243568     8.203697571     7.544372368
 H       -9.168203904     7.359710671     7.319293332
 H      -10.580566404     6.847429098     6.407397585
 H       -8.262170100     8.615596559     3.919719370
 H       -9.115786963     7.093555513     4.231465879
 H       -7.790120546     7.595123204     5.272380478
 H      -10.447571686    11.064957188     7.369513163
 H      -11.893269148    12.049305323     7.530963617
 H      -10.819196393    12.317314650     6.165985517
 H      -13.968028253    10.615070902     4.801092862
 H      -12.928956624    12.039264408     4.612061350
 H      -13.857065491    11.806244604     6.087853869
 H       -9.450022344    18.100429543    -4.168315540
 H       -9.817633150    19.157862011    -5.523057760
 H       -8.526206284    19.595143628    -4.412381162
 H       -6.832360324    18.483262148    -7.663700714
 H       -6.908047349    19.805842485    -6.484809903
 H       -8.310543678    19.413339893    -7.470486096
 H       -3.768869386    15.968831252    -4.770999479
 H       -3.804403958    14.817139639    -6.099811645
 H       -4.829845552    14.552344312    -4.693991533
 H       -7.139092336    15.612224487    -7.554936647
 H       -6.844358260    14.334396680    -6.358016745
 H       -5.697161076    14.616425227    -7.658411478
 H       -3.451513031    13.093520913    -3.145333604
 H       -4.924671615    12.534199003    -3.935773858
 H       -3.875564507    11.373413142    -3.135886614
 H       -6.995032528    11.720987456    -0.955435857
 H       -6.022320361    10.575980734    -1.902219678
 H       -6.938819218    11.848879930    -2.701498626
 H       -4.623464796    10.839475398     2.429922052
 H       -5.423875185    12.062473973     3.404512468
 H       -3.736287534    12.277680328     2.953789183
 H       -5.673313430    14.799614908     0.858878609
 H       -4.413369362    14.611336662     2.080857498
 H       -6.091440356    14.288868130     2.494654501
 H       -2.508982397    -1.710928585    -0.714599498
 H       -2.416268027    -1.717014961    -2.468622661
 H       -2.700042026    -0.199889936    -1.628066386
 H        0.895050124    -0.104855321    -2.955540987
 H       -0.649212874     0.766420999    -2.976172334
 H       -0.514887213    -0.821311770    -3.720994869
 H       -0.473315813    -2.973680570     0.765891069
 H       -0.654812021    -2.853302835     2.509625906
 H        0.893937457    -2.465822303     1.774629558
 H       -0.650332539     0.863677904     2.876607830
 H        0.781000905    -0.166651419     3.053068817
 H       -0.769260955    -0.683623632     3.703632451

