187   

Si        0.000000000     0.000000000     0.000000000
 C        1.865220329     0.000000000     0.000000000
 C       -0.684578219     1.708707701     0.000000000
 C        0.128642398     2.816667409    -0.257640655
 C       -0.405798165     4.105236632    -0.253913299
 C       -1.763790243     4.314432656    -0.000754749
 C       -2.578236636     3.202681588     0.253835053
 C       -2.047176494     1.916129361     0.254896882
 C       -2.368344087     5.642196866     0.013785693
 C       -1.706062308     6.790110220    -0.209055578
 C       -2.317882709     8.114873208    -0.192832880
 C       -1.512992200     9.234120116    -0.441726923
 C       -2.054522944    10.517495363    -0.436178015
 C       -3.414974701    10.712238473    -0.170248818
 C       -4.221203993     9.595333796     0.078653932
 C       -3.678230150     8.311850961     0.061858694
Si       -4.159957475    12.393444239    -0.155600431
 C       -5.533529072    12.516303352     1.047225153
 C       -5.603111562    11.800058384     2.177127741
 C       -6.698189962    11.892043918     3.144903086
 C       -6.649814130    11.083891003     4.291887142
 C       -7.658806953    11.131275518     5.238877154
 C       -8.738456128    12.024025528     5.079762729
 C       -8.792978406    12.829930732     3.933393377
 C       -7.791415335    12.743301208     2.971496389
 N       -9.736168634    12.019885637     6.087167670
 C       -9.266387516    12.395401258     7.435981945
 C      -11.027474261    12.620039254     5.720510655
 C       -9.278706696    13.896586150     7.773259629
 C       -8.291364588    14.747632437     6.952829588
 N       -6.877073564    14.638581823     7.343385878
 C       -6.551432732    14.801280847     8.694996520
 C       -7.275996116    15.724442505     9.482345507
 C       -6.966713916    15.897619921    10.821130383
 C       -5.903660261    15.204091413    11.417482629
 C       -5.169048815    14.313909535    10.629021626
 C       -5.474885787    14.113792540     9.289856427
 C       -6.098791571    13.666088447     6.566183829
 C       -5.619866756    15.424268982    12.836358345
 C       -4.631721100    14.816799745    13.506268360
Si       -4.229231924    15.049968591    15.272763238
 C       -2.430695011    15.390825367    15.455929849
 C       -1.711460265    15.946555206    14.390394167
 C       -0.349803009    16.207836440    14.520321498
 C        0.322402039    15.931954905    15.718290883
 C       -0.400453408    15.383704693    16.781701291
 C       -1.762846191    15.116393269    16.653969180
 C        1.749562937    16.223489562    15.804943781
 C        2.511843943    16.003550129    16.889607455
 C        3.938996825    16.295585110    16.974872353
 C        4.661147160    16.843610040    15.911643709
 C        6.025214930    17.107066144    16.036454152
 C        6.699156624    16.820023774    17.227602930
 C        5.977385750    16.268713970    18.295049312
 C        4.614938753    16.012501982    18.169501433
Si        8.498883882    17.161610504    17.408553429
 C        9.293656628    17.544306568    15.764763925
 C        8.750258010    18.649572561    18.568881440
 C        9.318205144    15.634150461    18.195574518
 C       -5.212125003    16.493421203    16.025148501
 C       -4.676554786    13.454401952    16.209100796
 C       -2.846260781    13.693999435     0.293673875
 C       -4.839686844    12.779535907    -1.888979644
 C       -0.607278538    -0.925483319    -1.548796259
 C       -0.656936946    -0.903823094     1.541246359
 H        1.197724461     2.715283560    -0.463716363
 H        0.249180744     4.951376950    -0.453253021
 H       -3.638782566     3.343857182     0.453907338
 H       -2.730894885     1.088095642     0.462784725
 H       -3.441878774     5.652181842     0.225905784
 H       -0.633309557     6.782640064    -0.421677248
 H       -0.451795366     9.102659948    -0.644024492
 H       -1.378465743    11.351582556    -0.642626140
 H       -5.292467567     9.687373848     0.288421108
 H       -4.327311083     7.459247900     0.253833289
 H       -6.312018683    13.247998353     0.783720411
 H       -4.832735587    11.070151781     2.465589743
 H       -5.814138982    10.396661098     4.432936126
 H       -7.633238878    10.469662062     6.102806554
 H       -9.617107943    13.520013527     3.780701193
 H       -7.860684630    13.366257519     2.078917184
 H      -11.759817001    12.404460742     6.518303920
 H      -11.399984239    12.137704321     4.798816287
 H      -10.996967657    13.708831568     5.559563890
 H       -6.420467207    13.679041932     5.508049967
 H       -6.190421617    12.630835738     6.933781979
 H       -5.032954398    13.960168507     6.577597501
 H       -8.078751190    16.305346900     9.038848966
 H       -7.552610215    16.599608120    11.415221766
 H       -4.336149538    13.761429572    11.067894089
 H       -4.881908836    13.409200623     8.715873722
 H       -6.300136952    16.146576531    13.306026845
 H       -3.969571282    14.090973297    13.004849186
 H       -2.185994801    16.185799835    13.432720975
 H        0.195176156    16.634043471    13.680049507
 H        0.098121316    15.160120711    17.722830790
 H       -2.275241377    14.686471315    17.518749012
 H        2.184717086    16.650665921    14.896484894
 H        2.077330044    15.576425038    17.798000048
 H        4.161279054    17.072019952    14.972076593
 H        6.535685954    17.537793556    15.170614312
 H        6.451520430    16.022573501    19.249396443
 H        4.071203300    15.585340846    19.009901523
 H       -9.926400062    11.855999191     8.157956254
 H       -8.242324739    11.988682480     7.593555048
 H      -10.298279840    14.305237283     7.644117829
 H       -9.057003599    14.010258247     8.855943956
 H       -8.384343565    14.500403808     5.870376728
 H       -8.574811848    15.824696803     7.039595900
 H        2.262853648    -1.029929411     0.039412235
 H        2.261970701     0.542228939     0.877539105
 H        2.274508813     0.479812545    -0.906276677
 H       10.379768458    17.711619909    15.877042290
 H        8.863696656    18.450615336    15.303531622
 H        9.158715920    16.707880841    15.055187218
 H        9.862652238    18.838317961    18.584734634
 C        8.057063484    19.923686481    18.052299448
 C        8.290962559    18.390750803    20.014916184
 H        8.818201452    15.497629593    19.198435898
 C        9.084570527    14.352494543    17.375453196
 C       10.827939001    15.804766665    18.440844034
 H       -6.297082834    16.281150242    15.799016694
 C       -5.057175894    16.605435200    17.552467412
 C       -4.845122168    17.847586785    15.390830266
 H       -4.436351875    13.651310420    17.293752907
 C       -6.170358886    13.098229717    16.109702786
 C       -3.840907792    12.246661773    15.748728562
 H       -2.048353873    13.620907097    -0.500616804
 C       -3.391447753    15.133222908     0.287642900
 C       -2.192286339    13.414129636     1.658718580
 H       -5.271933430    13.820018115    -1.831249592
 C       -3.753337871    12.772428095    -2.978388361
 C       -5.967027316    11.815491742    -2.300002280
 H       -0.103789251    -1.934855931    -1.516375586
 C       -2.129098556    -1.153860993    -1.576449812
 C       -0.190269790    -0.225595749    -2.855329086
 H       -1.781516024    -0.906026774     1.442117379
 C       -0.189985115    -2.366866500     1.640967105
 C       -0.301601375    -0.173271595     2.848897999
 H        8.390284588    20.227028611    17.051468313
 H        8.278088211    20.769582170    18.718978644
 H        6.961618577    19.832215153    18.024467102
 H        8.800491777    17.542461790    20.489126954
 H        7.207745407    18.222252360    20.094580758
 H        8.510054106    19.268234721    20.640806335
 H        8.020356122    14.133617427    17.206733191
 H        9.495627226    13.483309747    17.908437279
 H        9.577015473    14.374622966    16.394278011
 H       11.070113068    16.661689062    19.082673840
 H       11.403565315    15.909422364    17.511616993
 H       11.227800515    14.916262523    18.950965786
 H       -5.397554540    15.712329664    18.091584644
 H       -5.663524588    17.441036314    17.931210130
 H       -4.023629956    16.813179649    17.863859835
 H       -4.963866854    17.868569058    14.298816331
 H       -3.813410892    18.155954328    15.614131506
 H       -5.495716537    18.639240276    15.787926641
 H       -6.831457565    13.879938367    16.505286391
 H       -6.381213920    12.191788195    16.694752992
 H       -6.490581140    12.881298210    15.080506196
 H       -2.757005128    12.410760076    15.829183428
 H       -4.055283307    11.947971427    14.713395758
 H       -4.066030294    11.371687366    16.374761705
 H       -3.808272063    15.437936329    -0.680708802
 H       -2.580292164    15.842533835     0.508055141
 H       -4.161581667    15.302049429     1.053366407
 H       -1.726107031    12.421229098     1.724793211
 H       -2.898460067    13.503720524     2.497091348
 H       -1.391970732    14.142828375     1.850473818
 H       -2.955504641    13.505544064    -2.803727715
 H       -4.195666499    13.027218250    -3.952505452
 H       -3.281201326    11.787588494    -3.106029133
 H       -6.813063445    11.808232137    -1.599459007
 H       -5.621444236    10.777685755    -2.413902111
 H       -6.377786847    12.110008717    -3.276241766
 H       -2.500436586    -1.723348466    -0.715138524
 H       -2.404947240    -1.734461842    -2.468915592
 H       -2.700314744    -0.216648488    -1.634166448
 H        0.895074955    -0.095388734    -2.954025134
 H       -0.656360680     0.762750708    -2.977620595
 H       -0.507473676    -0.824243185    -3.721235469
 H       -0.468297350    -2.972816888     0.769083623
 H       -0.655507564    -2.850614198     2.512073166
 H        0.894947148    -2.461422591     1.781521186
 H       -0.655658564     0.867297979     2.874429176
 H        0.776931871    -0.160712048     3.054605212
 H       -0.773611496    -0.678873799     3.703389381

