187   

Si        0.000000000     0.000000000     0.000000000
 C        1.865298177     0.000000000     0.000000000
 C       -0.660545646     1.718915918     0.000000000
 C        0.066068705     2.750736981    -0.604732988
 C       -0.424927004     4.055607835    -0.610354583
 C       -1.654737281     4.359080029    -0.019586564
 C       -2.384645064     3.323748147     0.578573205
 C       -1.896924746     2.019263387     0.585439863
 C       -2.205925619     5.710247465    -0.002707802
 C       -1.605244432     6.785205419    -0.540794519
 C       -2.149756611     8.138671046    -0.527927731
 C       -3.377787792     8.453752180     0.059527816
 C       -3.858909988     9.763130838     0.047746592
 C       -3.127411231    10.782419923    -0.568344083
 C       -1.896695929    10.468927216    -1.162129082
 C       -1.413694843     9.164022197    -1.137183269
Si       -3.719653272    12.523748782    -0.610130212
 C       -3.301809162    13.310248951    -2.208896447
 C       -3.205774395    12.630682538    -3.359369867
 C       -2.873474472    13.233729627    -4.651243551
 C       -2.806294425    12.402058002    -5.780317277
 C       -2.496435381    12.918341718    -7.026849591
 C       -2.198238316    14.289020325    -7.171362416
 C       -2.264402314    15.123511720    -6.046238126
 C       -2.620287852    14.597843241    -4.808009999
 N       -1.889886322    14.749418877    -8.476278810
 C       -0.695853324    14.133113782    -9.089720662
 C       -1.982316605    16.201358948    -8.689348885
 C        0.654653065    14.808949474    -8.793748517
 C        1.098821732    14.745618790    -7.320233092
 N        1.607340884    13.444040687    -6.859366809
 C        2.583941722    12.805086256    -7.631986726
 C        3.568194221    13.575968893    -8.290841934
 C        4.541715451    12.959817278    -9.059265017
 C        4.609016181    11.562953836    -9.164414360
 C        3.652441821    10.801338710    -8.487278041
 C        2.657404448    11.401254265    -7.727717175
 C        0.615785602    12.600726590    -6.180671812
 C        5.657893572    10.962319633    -9.989889425
 C        5.813455227     9.642828432   -10.159586712
Si        7.097966262     8.831155527   -11.173431099
 C        6.311839752     7.600240505   -12.292653172
 C        4.955816562     7.715602688   -12.622847695
 C        4.355680379     6.786976238   -13.469361410
 C        5.095760070     5.729075662   -14.013410685
 C        6.450558533     5.620811701   -13.686369568
 C        7.054100191     6.546352610   -12.836059181
 C        4.421502297     4.781994721   -14.895107668
 C        5.011156289     3.724642068   -15.478361682
 C        4.335168153     2.778512746   -16.359892187
 C        2.980944184     2.887447417   -16.686279917
 C        2.374454369     1.960191120   -17.533489543
 C        3.109400638     0.897114118   -18.067403169
 C        4.467673431     0.784682734   -17.740516649
 C        5.071649518     1.715343381   -16.899682706
Si        2.323919322    -0.334964554   -19.186887499
 C        0.463941145    -0.193159935   -19.166555895
 C        2.937829457    -0.058438260   -20.967326359
 C        2.856806233    -2.074459427   -18.626383288
 C        8.058504142    10.096146501   -12.218761527
 C        8.318142252     7.945338371   -10.012337905
 C       -5.602494627    12.599229716    -0.355937189
 C       -2.873171317    13.498548200     0.786036677
 C       -0.633006550    -0.898385270    -1.553691531
 C       -0.649270988    -0.927586262     1.530431701
 H        1.034004037     2.575742832    -1.083051252
 H        0.162519033     4.840674958    -1.083170827
 H       -3.345446175     3.537568015     1.042980317
 H       -2.512485301     1.253148795     1.064737696
 H       -3.176290755     5.803684422     0.493175982
 H       -0.634232086     6.689140158    -1.036075328
 H       -3.969934484     7.675562088     0.537246009
 H       -4.821509927     9.949878800     0.531303328
 H       -1.281850753    11.227641737    -1.658831973
 H       -0.454270177     8.939682944    -1.599815796
 H       -3.149470274    14.398571278    -2.168559488
 H       -3.363073975    11.543484007    -3.420108765
 H       -3.019148622    11.336651836    -5.679158962
 H       -2.494680953    12.273785142    -7.903943106
 H       -2.048580660    16.184156950    -6.129998441
 H       -2.683597321    15.265883138    -3.948239033
 H       -1.875897785    16.411012470    -9.768233757
 H       -1.231200349    16.792859208    -8.143165291
 H       -2.988723994    16.545428733    -8.389425203
 H       -0.053061168    13.224418468    -5.558492899
 H        1.135374882    11.908386815    -5.492745508
 H       -0.014261841    12.016000307    -6.871083164
 H        3.566176659    14.657344957    -8.194375485
 H        5.278545931    13.574891645    -9.576763425
 H        3.681331281     9.712111566    -8.552255329
 H        1.930594293    10.772177985    -7.224321618
 H        6.311960988    11.704288999   -10.465897005
 H        5.142915706     8.924457780    -9.658328853
 H        4.330269194     8.524096048   -12.230176973
 H        3.299448165     6.888487493   -13.711346997
 H        7.047472893     4.808105273   -14.095608098
 H        8.116190115     6.409995201   -12.615129952
 H        3.360432240     4.989488244   -15.062985253
 H        6.071857483     3.516290383   -15.311128424
 H        2.385086207     3.702883510   -16.280246006
 H        1.312316663     2.098927412   -17.753502045
 H        5.091623053    -0.026040086   -18.127208510
 H        6.127929847     1.612297859   -16.658625325
 H       -0.644709477    13.060832409    -8.795448945
 H       -0.871313255    14.141664725   -10.192836444
 H        1.426628608    14.333875989    -9.435989900
 H        0.625761395    15.867455861    -9.113392405
 H        1.910778482    15.493933965    -7.149794178
 H        0.259489553    15.057834853    -6.657255664
 H        2.263878095    -1.028667876     0.055832399
 H        2.258437494     0.557137349     0.870136708
 H        2.277403563     0.467379556    -0.911173922
 H       -0.001022943    -0.964880981   -19.805648483
 H        0.124558399     0.791153642   -19.533878537
 H        0.067454236    -0.326984851   -18.143685265
 H        2.374333822    -0.801934474   -21.602103711
 C        2.617484735     1.354284925   -21.489151563
 C        4.443290306    -0.321480627   -21.150004934
 H        3.982384877    -2.094931190   -18.710330659
 C        2.489297747    -2.358679800   -17.158747505
 C        2.297840181    -3.202899678   -19.511012682
 H        8.427157562    10.880272702   -11.495661428
 C        9.281783603     9.494948569   -12.933640078
 C        7.166615441    10.789389164   -13.265257379
 H        9.104761163     7.486565655   -10.678434300
 C        9.021152395     8.903885604    -9.035171788
 C        7.652753640     6.811127576    -9.212514607
 H       -5.801626986    12.116969747     0.644683989
 C       -6.151170904    14.036532491    -0.306611242
 C       -6.370595081    11.810123690    -1.431259392
 H       -3.271733897    14.551802945     0.717770087
 C       -3.200798279    12.952361798     2.186483694
 C       -1.344301291    13.554652066     0.615969114
 H       -0.173191229    -1.928132943    -1.523515862
 C       -2.163848828    -1.058595911    -1.578705755
 C       -0.186089634    -0.214012370    -2.858290756
 H       -1.774989851    -0.915420239     1.447090061
 C       -0.200408786    -2.398839628     1.591167240
 C       -0.265090361    -0.233509104     2.849827581
 H        1.546711701     1.594633543   -21.469661392
 H        2.934296064     1.449547176   -22.537663483
 H        3.145767386     2.143846093   -20.935326236
 H        4.744015550    -1.341038532   -20.877649471
 H        5.070832991     0.379543936   -20.581731792
 H        4.721101324    -0.192363314   -22.206333465
 H        2.903469920    -1.620343591   -16.457094081
 H        2.892375066    -3.334066262   -16.851044938
 H        1.405485520    -2.404652366   -16.988614131
 H        2.579630763    -3.107363744   -20.567591979
 H        1.203767964    -3.283015180   -19.462557527
 H        2.691571566    -4.173211225   -19.174827562
 H       10.022908864     9.069359903   -12.245217011
 H        9.806066106    10.276558473   -13.502515598
 H        9.012710854     8.717064754   -13.662023954
 H        6.284367964    11.281972194   -12.834151477
 H        6.809038559    10.099267440   -14.043116157
 H        7.734603330    11.572630380   -13.786388293
 H        9.593792284     9.694370598    -9.537036762
 H        9.739941313     8.349530447    -8.415121380
 H        8.324101691     9.390211493    -8.337375211
 H        7.163119499     6.059474736    -9.847554861
 H        6.906185530     7.175556697    -8.493448203
 H        8.408420889     6.270757382    -8.624908068
 H       -5.709055338    14.645271237     0.492398854
 H       -7.233705020    14.018383131    -0.113522372
 H       -6.018802870    14.577508655    -1.253960471
 H       -6.076362309    10.753343878    -1.493869527
 H       -6.261400693    12.241759426    -2.436954747
 H       -7.446899992    11.817205944    -1.208450140
 H       -4.272988144    12.966589737     2.420464080
 H       -2.711021053    13.568331063     2.954764421
 H       -2.838419779    11.925844256     2.341658052
 H       -1.026377836    13.983263709    -0.344122412
 H       -0.867591786    12.568521059     0.714380159
 H       -0.901213883    14.187820639     1.397951981
 H       -2.555508410    -1.632216071    -0.729102874
 H       -2.470026585    -1.603761393    -2.483378845
 H       -2.694234163    -0.096106150    -1.607476970
 H        0.904016231    -0.134585842    -2.957992740
 H       -0.607332291     0.794644485    -2.977344124
 H       -0.531567798    -0.794935485    -3.725596249
 H       -0.503182550    -2.982600620     0.712282739
 H       -0.656566807    -2.894597446     2.460419302
 H        0.885473985    -2.511176139     1.709487127
 H       -0.594070110     0.814002854     2.903081974
 H        0.815947610    -0.249370733     3.043011939
 H       -0.738030792    -0.748030546     3.698381337

