187   

Si        0.000000000     0.000000000     0.000000000
 C        1.865181816     0.000000000     0.000000000
 C       -0.676976993     1.711848599     0.000000000
 C        0.114675875     2.798983495     0.383998366
 C       -0.406834238     4.092578223     0.380874366
 C       -1.731386384     4.328150585     0.003265030
 C       -2.525074340     3.237075783    -0.375380612
 C       -2.006741340     1.945060042    -0.375982454
 C       -2.319850576     5.663211298    -0.015363891
 C       -1.670798863     6.791103627     0.320370380
 C       -2.260449205     8.125720898     0.301323988
 C       -3.585555423     8.358322535    -0.076815321
 C       -4.109304855     9.650768555    -0.080765219
 C       -3.321154225    10.738157196     0.309134312
 C       -1.992640443    10.507953598     0.690938513
 C       -1.469151730     9.218006781     0.681293772
Si       -3.986219004    12.453212391     0.313474551
 C       -3.258776396    13.467236511     1.649025739
 C       -2.835920684    12.978802511     2.823129603
 C       -2.253906384    13.793747700     3.890337140
 C       -1.847295662    13.167340167     5.077174771
 C       -1.290710913    13.893517245     6.117371217
 C       -1.166015611    15.296705361     6.023936014
 C       -1.574783412    15.926106520     4.832374301
 C       -2.086484977    15.176753965     3.781086115
 N       -0.599395444    16.024344431     7.085948701
 C       -0.830681454    15.512592012     8.448974254
 C       -0.684314914    17.493049640     7.005769746
 C       -2.320252669    15.470371640     8.834779803
 C       -2.545139801    15.376521529    10.352639509
 N       -2.007438453    16.497933030    11.158173777
 C       -2.067721300    17.768751530    10.541400112
 C       -3.319145303    18.210819610    10.061817279
 C       -3.433269571    19.447177221     9.449819539
 C       -2.322980143    20.296776546     9.321973641
 C       -1.092527313    19.865777522     9.821418959
 C       -0.959808820    18.623913253    10.433659125
 C       -0.755872468    16.165244237    11.857871802
 C       -2.499619340    21.594129288     8.665776115
 C       -1.513916236    22.483035542     8.488688813
Si       -1.673553556    24.114001976     7.679121675
 C       -0.934777321    25.414215369     8.748554853
 C       -0.803549675    25.203474865    10.125207169
 C       -0.243851227    26.186625122    10.940501053
 C        0.185217001    27.402615741    10.401389742
 C        0.046136461    27.613000436     9.022902599
 C       -0.507978265    26.632045326     8.204746103
 C        0.776297898    28.459321043    11.215990023
 C        0.965770277    28.385273452    12.544347821
 C        1.556666143    29.441155856    13.359965453
 C        1.990435291    30.655679781    12.822593975
 C        2.549909334    31.638016561    13.639820874
 C        2.681542961    31.428285573    15.015992942
 C        2.246215754    30.211036082    15.557622470
 C        1.693404120    29.230588063    14.738772134
Si        3.417535697    32.713838110    16.109106876
 C        3.591443137    34.347969064    15.226500303
 C        2.297277821    32.905818551    17.636121457
 C        5.140345822    32.147089264    16.687254342
 C       -0.747761579    24.044627507     6.017868278
 C       -3.494945945    24.545297275     7.344933576
 C       -3.568392627    13.271299827    -1.352814981
 C       -5.877256192    12.427127439     0.522592832
 C       -0.651465467    -0.910240015    -1.540169625
 C       -0.622495983    -0.916946791     1.547390048
 H        1.157383223     2.677191766     0.690182834
 H        0.232014887     4.922180877     0.678461783
 H       -3.559417637     3.398452018    -0.672993933
 H       -2.673668625     1.134055710    -0.681567463
 H       -3.366320587     5.697059910    -0.332343383
 H       -0.624168501     6.757804464     0.637101236
 H       -4.221792808     7.527792244    -0.376233833
 H       -5.150068550     9.770177537    -0.393561345
 H       -1.330219605    11.322465901     1.004128479
 H       -0.433768388     9.058832267     0.976875162
 H       -3.203980499    14.543592967     1.426186405
 H       -2.887766228    11.909843115     3.074809196
 H       -1.958348775    12.087175676     5.181549358
 H       -0.952415178    13.372095206     7.007719095
 H       -1.488855190    17.001695543     4.714718907
 H       -2.378311548    15.687758622     2.862466957
 H       -0.246871519    17.950744394     7.911089201
 H       -1.715455423    17.871410685     6.908517784
 H       -0.086389433    17.843321705     6.145403495
 H       -0.918808312    15.257834816    12.466350845
 H       -0.504102870    16.976834362    12.564382109
 H        0.106295126    15.991321937    11.195684077
 H       -4.194163102    17.575904500    10.180952444
 H       -4.405170826    19.769107776     9.074038676
 H       -0.215086703    20.509643133     9.739279001
 H        0.013298597    18.323400505    10.809233445
 H       -3.530006865    21.773337964     8.332364664
 H       -0.487207126    22.269199536     8.831252720
 H       -1.126758611    24.273033872    10.603635968
 H       -0.146675422    25.997813641    12.008131189
 H        0.374139679    28.553146518     8.583688517
 H       -0.590321651    26.851130936     7.136730362
 H        1.069697096    29.355009943    10.660792908
 H        0.671757547    27.489343016    13.099267537
 H        1.895565731    30.845548426    11.755044239
 H        2.872131158    32.567034542    13.161433901
 H        2.323103264    29.991817876    16.626414567
 H        1.362507266    28.291115566    15.177548002
 H       -0.373523368    14.501758859     8.533125388
 H       -0.261897839    16.160811671     9.154240414
 H       -2.832995713    16.366673992     8.429877309
 H       -2.813172325    14.613048878     8.335348417
 H       -3.643481777    15.343109392    10.555995659
 H       -2.132614486    14.418524425    10.736890766
 H        2.263133582    -1.028881728    -0.057696211
 H        2.276270491     0.464563083     0.913238112
 H        2.259822864     0.557841927    -0.868833933
 H        3.995501827    35.123789096    15.901251084
 H        2.612618939    34.705823414    14.858737463
 H        4.271303121    34.274619331    14.359647048
 H        2.280665316    31.893869055    18.136231359
 C        2.823260605    33.928493918    18.658941788
 C        0.848942270    33.269371978    17.262036109
 H        5.555629603    33.004815454    17.291511458
 C        5.112278428    30.899629178    17.588323451
 C        6.098423481    31.883462703    15.510977148
 H       -0.899069826    25.052785955     5.534390677
 C        0.765244277    23.824856382     6.194718070
 C       -1.302804911    22.970885142     5.065476328
 H       -3.921492220    23.670737683     6.773560220
 C       -4.305434651    24.713222471     8.643203526
 C       -3.673726286    25.808688851     6.484342397
 H       -4.002339854    14.311499070    -1.307177761
 C       -2.050464230    13.395698967    -1.576007860
 C       -4.192975060    12.544331980    -2.556344001
 H       -6.280738792    11.835221482    -0.348880653
 C       -6.311316156    11.724164635     1.821420282
 C       -6.511712011    13.828765259     0.478190651
 H       -1.775973529    -0.920184048    -1.441839782
 C       -0.299620976    -0.180369719    -2.849106882
 C       -0.175621300    -2.370757682    -1.637029571
 H       -0.141154505    -1.936762453     1.513862247
 C       -0.191848341    -0.228519927     2.855583272
 C       -2.149391300    -1.110408927     1.571029303
 H        3.828762377    33.693272057    19.031153867
 H        2.166305113    33.948836854    19.540721938
 H        2.842662380    34.954363094    18.267866945
 H        0.385343610    32.549533738    16.572297915
 H        0.759560560    34.265706386    16.809262520
 H        0.218291100    33.280956460    18.162416368
 H        4.502503743    31.026914751    18.491673583
 H        6.129062041    30.665349275    17.936080373
 H        4.755293190    30.002679367    17.062969560
 H        6.242293721    32.756035757    14.860877902
 H        5.775185541    31.045729427    14.876383333
 H        7.095115144    31.615212648    15.889798481
 H        1.243106587    24.578882050     6.836265925
 H        1.271135524    23.887026966     5.220631538
 H        1.009181777    22.835796582     6.606017575
 H       -2.363793302    23.111787206     4.822040416
 H       -1.182989751    21.949676323     5.455016832
 H       -0.762155309    23.001092717     4.108643213
 H       -4.265785429    23.836393502     9.303795335
 H       -5.366733221    24.874824734     8.407541781
 H       -3.985779366    25.583663556     9.234665838
 H       -3.206761241    25.732025294     5.494257489
 H       -3.287092906    26.715901839     6.970110614
 H       -4.743203834    25.991846737     6.304387128
 H       -1.536561540    13.953358101    -0.780978565
 H       -1.849735738    13.936539115    -2.511578669
 H       -1.552095731    12.420260606    -1.672586942
 H       -5.288738450    12.498953551    -2.517392473
 H       -3.819506297    11.517245035    -2.677104691
 H       -3.940764147    13.072330274    -3.487368006
 H       -5.943828047    10.691870142     1.903794773
 H       -7.407516715    11.665958473     1.871637790
 H       -5.988769723    12.261569819     2.725184645
 H       -6.315866988    14.366146543    -0.458372100
 H       -6.186605235    14.471176460     1.308638099
 H       -7.605074360    13.748850167     0.562525512
 H       -0.657889140     0.858748323    -2.876401996
 H       -0.768818908    -0.689448571    -3.702956115
 H        0.778989904    -0.163197224    -3.054406020
 H       -0.455141320    -2.977838932    -0.766325957
 H        0.910466956    -2.459469809    -1.772168546
 H       -0.633973742    -2.857303209    -2.510315361
 H        0.896027436    -0.123416194     2.955948038
 H       -0.523937886    -0.821253527     3.719981241
 H       -0.636002885     0.769799289     2.978682812
 H       -2.529370462    -1.681177057     0.714319249
 H       -2.699675603    -0.159749125     1.614026537
 H       -2.442679385    -1.674168313     2.468594128

