187   

Si        0.000000000     0.000000000     0.000000000
 C        1.864986867     0.000000000     0.000000000
 C       -0.680880373     1.710274159     0.000000000
 C        0.091955398     2.791791930     0.435303596
 C       -0.431257832     4.084696938     0.432231640
 C       -1.738212666     4.325014188     0.000145448
 C       -2.513105750     3.239733114    -0.430093056
 C       -1.993786079     1.948163024    -0.427966088
 C       -2.328953614     5.658883750    -0.021198359
 C       -1.700870525     6.783330503     0.362493082
 C       -2.298149223     8.114605501     0.338448812
 C       -1.532152763     9.206449947     0.766706741
 C       -2.061490530    10.495022344     0.760834954
 C       -3.366580690    10.723821376     0.310014441
 C       -4.132977693     9.634315858    -0.120973201
 C       -3.605116632     8.344705480    -0.101242244
Si       -4.102144228    12.409639156     0.286348399
 C       -5.210114122    12.639339049    -1.149964171
 C       -5.051096734    12.015669667    -2.325239542
 C       -5.933606547    12.194471831    -3.478997588
 C       -5.659227479    11.482119345    -4.656187879
 C       -6.462020226    11.614451543    -5.776630511
 C       -7.555397775    12.507166923    -5.769635834
 C       -7.832510502    13.220907548    -4.590221255
 C       -7.041619741    13.044687628    -3.461031803
 N       -8.354950825    12.620002804    -6.926356725
 C       -7.627914015    12.657694982    -8.211070893
 C       -9.463880400    13.588182954    -6.873210652
 C       -6.601957558    13.803500870    -8.288622891
 C       -6.241310749    14.195279553    -9.730632395
 N       -7.363116471    14.666701941   -10.575876083
 C       -8.366827293    15.401352222    -9.906472250
 C       -7.969647132    16.506564598    -9.123579170
 C       -8.915706123    17.258271654    -8.448148661
 C      -10.283891040    16.962865900    -8.552682209
 C      -10.674287805    15.886076237    -9.351190524
 C       -9.736242560    15.117460065   -10.031667445
 C       -7.821124917    13.660945771   -11.548206665
 C      -11.243589757    17.789497805    -7.817387995
 C      -12.568740873    17.598148091    -7.844513571
Si      -13.816109698    18.591665956    -6.952088378
 C      -15.143977665    19.106603068    -8.114995080
 C      -14.882280149    19.187386219    -9.488332472
 C      -15.883775429    19.576750329   -10.374132296
 C      -17.164410709    19.904506133    -9.909842651
 C      -17.419677655    19.828668690    -8.537554944
 C      -16.421030423    19.435006752    -7.647904013
 C      -18.179740802    20.306670887   -10.877545998
 C      -19.443763181    20.641421314   -10.567378064
 C      -20.458131732    21.043427837   -11.536197647
 C      -20.202541934    21.119091355   -12.907757233
 C      -21.202069434    21.508310007   -13.799346526
 C      -22.483672425    21.823965229   -13.337680355
 C      -22.743086233    21.747635560   -11.962465963
 C      -21.741836309    21.364434597   -11.074525865
Si      -23.814243188    22.339396630   -14.500969344
 C      -23.339671482    22.010313689   -16.274681745
 C      -25.398449082    21.382613952   -14.055189511
 C      -24.152962779    24.201069225   -14.294098115
 C      -14.553796650    17.514851805    -5.567340501
 C      -13.040210907    20.142472132    -6.171979408
 C       -5.116418175    12.656512158     1.876638400
 C       -2.734688487    13.731172085     0.223521596
 C       -0.647749008    -0.916198051    -1.538640975
 C       -0.625748456    -0.914000403     1.547977769
 H        1.120806820     2.665671963     0.783558057
 H        0.191429259     4.909837215     0.772940960
 H       -3.534042267     3.405176186    -0.769341809
 H       -2.646490333     1.141427910    -0.772945221
 H       -3.360821360     5.695147525    -0.383663847
 H       -0.669775470     6.749704493     0.725569527
 H       -0.512384854     9.049152547     1.112251501
 H       -1.419451162    11.306084038     1.114657899
 H       -5.159686659     9.754536362    -0.484256407
 H       -4.222601522     7.513733361    -0.437525900
 H       -6.029854761    13.355178958    -0.988810695
 H       -4.235952481    11.301574882    -2.512117547
 H       -4.806460881    10.802685386    -4.687935544
 H       -6.248120129    11.024351697    -6.663210101
 H       -8.664904770    13.916315027    -4.544590213
 H       -7.286797980    13.598591379    -2.553927767
 H      -10.047242291    13.536997707    -7.809833521
 H       -9.138690575    14.633940152    -6.742291913
 H      -10.148306466    13.313840304    -6.051305197
 H       -6.953903628    13.307115390   -12.133282309
 H       -8.512466999    14.136818931   -12.267529565
 H       -8.320257569    12.787342191   -11.100858052
 H       -6.915891495    16.768133366    -9.059227471
 H       -8.590790136    18.101044629    -7.836849562
 H      -11.732489398    15.639608110    -9.454659592
 H      -10.078952086    14.288862740   -10.643217552
 H      -10.769378412    18.593117061    -7.239317326
 H      -13.012435457    16.777043717    -8.432952599
 H      -13.899261687    18.947537842    -9.906913599
 H      -15.665042791    19.629125033   -11.439118832
 H      -18.406230018    20.077934085    -8.151370443
 H      -16.679487306    19.393049247    -6.586347465
 H      -17.839723433    20.321450117   -11.917366753
 H      -19.784263691    20.626951909    -9.527910807
 H      -19.214588035    20.874233753   -13.293584222
 H      -20.941543558    21.550029289   -14.860559515
 H      -23.726332186    21.981279023   -11.544283252
 H      -21.962129089    21.312228723   -10.010009054
 H       -7.129678995    11.675002831    -8.363924711
 H       -8.381093644    12.746597211    -9.025660194
 H       -6.989728569    14.686421426    -7.740747600
 H       -5.680394789    13.517208779    -7.744087192
 H       -5.496819906    15.028401218    -9.705114855
 H       -5.733959744    13.345084399   -10.235899271
 H        2.263517878    -1.029207744    -0.045456522
 H        2.275545920     0.475628472     0.907834743
 H        2.259594993     0.548135965    -0.874962717
 H      -24.160087150    22.280270856   -16.963383679
 H      -23.113401336    20.940095207   -16.432238174
 H      -22.449723994    22.591248259   -16.574101970
 H      -25.644667279    21.670314751   -12.991741556
 C      -26.606196468    21.752321915   -14.934549346
 C      -25.196549111    19.857124238   -14.095540454
 H      -24.926447519    24.458241498   -15.074448594
 C      -24.725311713    24.575712802   -12.915341571
 C      -22.903602590    25.060960424   -14.559486342
 H      -15.284176092    18.174227419    -5.015199663
 C      -15.327218638    16.301102242    -6.112389665
 C      -13.497484088    17.025575237    -4.560820805
 H      -12.168041058    19.777840599    -5.555800810
 C      -12.502834962    21.123041294    -7.230607175
 C      -14.000724018    20.900267294    -5.238630101
 H       -5.536082681    13.702124811     1.819774939
 C       -6.296629523    11.673204972     1.974444407
 C       -4.268993511    12.549463663     3.156300047
 H       -2.104568544    13.574341882     1.146073920
 C       -1.827857542    13.575142079    -1.010448360
 C       -3.280492267    15.169873324     0.261359790
 H       -1.772223746    -0.930399288    -1.440845785
 C       -0.297710052    -0.188428702    -2.849192986
 C       -0.166332205    -2.375098417    -1.631664230
 H       -0.150592306    -1.936666931     1.514052916
 C       -0.190054809    -0.228045611     2.855701690
 C       -2.153760047    -1.097336508     1.571915325
 H      -26.858372555    22.820100350   -14.900190034
 H      -27.500988524    21.214470200   -14.588767294
 H      -26.470158015    21.474417308   -15.988117687
 H      -24.381926730    19.509779920   -13.443916754
 H      -24.996402866    19.476941220   -15.106051288
 H      -26.106091406    19.346830307   -13.747806149
 H      -25.669336192    24.067086964   -12.682455444
 H      -24.941577734    25.653507821   -12.879067919
 H      -24.022672608    24.378120193   -12.093565323
 H      -22.477973341    24.915366603   -15.560668441
 H      -22.101277271    24.885773691   -13.828258620
 H      -23.158132383    26.128094580   -14.486559265
 H      -16.127624530    16.573654269    -6.814828739
 H      -15.814969761    15.763270939    -5.286882237
 H      -14.678850098    15.570530698    -6.615221578
 H      -12.961336330    17.842810575    -4.061271768
 H      -12.746858738    16.363174377    -5.015602981
 H      -13.979643680    16.442507334    -3.763132752
 H      -11.776093621    20.672070538    -7.919996071
 H      -11.986138747    21.960945450    -6.741708033
 H      -13.301178185    21.568809236    -7.841752308
 H      -14.349656576    20.298167542    -4.390106606
 H      -14.885635442    21.291737023    -5.760274297
 H      -13.491971300    21.773688774    -4.804852870
 H       -6.981867143    11.726961686     1.117397416
 H       -6.900025322    11.895293725     2.865926623
 H       -5.973349022    10.627068885     2.076007229
 H       -3.456802495    13.285943882     3.204438977
 H       -3.825425687    11.552836467     3.293919749
 H       -4.898070925    12.728437823     4.040318229
 H       -1.352592769    12.587064769    -1.082398147
 H       -1.010253321    14.308534705    -0.974216926
 H       -2.360509314    13.753157176    -1.956067215
 H       -3.876562785    15.386812740     1.156873806
 H       -3.892243664    15.417719393    -0.617406897
 H       -2.447440202    15.887574593     0.266969331
 H       -0.658666582     0.849657131    -2.879165049
 H       -0.765022822    -0.700795291    -3.702109678
 H        0.780925166    -0.168752116    -3.054199870
 H       -0.444713025    -2.981359616    -0.759994192
 H        0.920221097    -2.460237220    -1.765258107
 H       -0.621797517    -2.865442368    -2.504365166
 H        0.898553302    -0.130764748     2.955826146
 H       -0.526144099    -0.817950507     3.720550427
 H       -0.627295715     0.773361553     2.978639756
 H       -2.537580203    -1.667720495     0.716648436
 H       -2.698022799    -0.142980955     1.612086940
 H       -2.451114437    -1.656803626     2.470864721

