187   

Si        0.000000000     0.000000000     0.000000000
 C        1.865977084     0.000000000     0.000000000
 C       -0.676513119     1.712039768     0.000000000
 C        0.169517865     2.825374494     0.004121104
 C       -0.357070076     4.116929756     0.004069094
 C       -1.738700934     4.325100877     0.010228348
 C       -2.585489031     3.208623359     0.005225843
 C       -2.062802383     1.918527440    -0.005650861
 C       -2.332831543     5.657849807     0.010416044
 C       -1.631202805     6.803681504     0.004810837
 C       -2.215824624     8.139909080     0.004946422
 C       -3.595288731     8.364038079     0.011063782
 C       -4.107533854     9.662024945     0.010930824
 C       -3.246036190    10.761386795    -0.012784161
 C       -1.861202438    10.540284774    -0.025320746
 C       -1.354031058     9.244848929    -0.014284853
Si       -3.855247721    12.499425964    -0.014359699
 C       -2.565945531    13.492599525    -0.841849461
 C       -2.019373967    14.625097790    -0.382578401
 C       -0.986034497    15.370447104    -1.103459457
 C       -0.476687835    16.548633313    -0.535627895
 C        0.500792777    17.284449307    -1.182520001
 C        0.979289599    16.876155897    -2.445658204
 C        0.440133823    15.723093178    -3.033983240
 C       -0.549367278    14.999826732    -2.376714995
 N        1.980022274    17.671391186    -3.056314894
 C        3.183550526    17.877104424    -2.211925896
 C        2.305214811    17.360079356    -4.457250368
 C        3.659813293    16.661218883    -1.392827698
 C        4.660207240    15.740989193    -2.119885027
 N        4.288925544    14.317587222    -2.274728057
 C        3.749051866    13.711058725    -1.091097991
 C        4.676863692    13.152003895    -0.199537123
 C        4.231838810    12.547358448     0.967382845
 C        2.864059105    12.492614777     1.277214642
 C        1.946352497    13.038614748     0.376168129
 C        2.380940083    13.626245394    -0.807427981
 C        3.486641216    14.037951720    -3.478474266
 C        2.460377289    11.839736924     2.525400362
 C        1.196164543    11.712526901     2.950953533
Si        0.770619445    10.880844267     4.527340053
 C        2.127448023    11.075222467     5.753757075
 C        2.787137161    12.307585151     5.858427792
 C        3.817179114    12.480661235     6.778444316
 C        4.208200641    11.432324457     7.622515828
 C        3.545941348    10.206408080     7.518594275
 C        2.516728880    10.028348053     6.594268070
 C        5.293372767    11.662361801     8.570587998
 C        5.766304215    10.743349596     9.429462812
 C        6.851370878    10.972519011    10.377812585
 C        7.514797315    12.197685088    10.483190096
 C        8.547377691    12.372765762    11.404470872
 C        8.935604815    11.325128467    12.245408585
 C        8.271649666    10.095230998    12.141783475
 C        7.244887995     9.922055250    11.217973672
Si       10.296439342    11.540456273    13.466406439
 C       10.739150222    13.338648901    13.690421788
 C        9.737256099    10.788935884    15.123464355
 C       11.838630784    10.600089691    12.865581878
 C       -0.785660140    11.695588903     5.260688462
 C        0.369928243     9.053840170     4.186802618
 C       -5.486563182    12.636553970    -0.975267486
 C       -4.136152030    13.069349577     1.774346989
 C       -0.672463604    -0.885233646    -1.544023827
 C       -0.578572212    -0.941823717     1.550800881
 H        1.258603710     2.725948883     0.005276758
 H        0.323990196     4.966428830     0.001790250
 H       -3.664746139     3.348450693     0.006625530
 H       -2.772576494     1.086405222    -0.019763807
 H       -3.426223186     5.673115433     0.015655755
 H       -0.536661754     6.784939350    -0.000969601
 H       -4.284670077     7.522266346     0.020681463
 H       -5.194000464     9.777093376     0.023838799
 H       -1.138212264    11.364347074    -0.042889508
 H       -0.275063614     9.091989394    -0.024242114
 H       -2.258118325    13.066177492    -1.812717622
 H       -2.302884317    15.083099013     0.572985848
 H       -0.841279025    16.881838755     0.436434661
 H        0.890758119    18.193164351    -0.729581459
 H        0.762538925    15.398774738    -4.019355246
 H       -0.967858605    14.117051726    -2.863777956
 H        2.898559940    18.194161678    -4.872920166
 H        1.375722595    17.307269383    -5.051019762
 H        2.873289944    16.427618049    -4.595638177
 H        4.083671244    14.299552326    -4.368053584
 H        2.526636805    14.571405539    -3.521145848
 H        3.282154303    12.953441252    -3.530621158
 H        5.738487018    13.196875901    -0.436033310
 H        4.958922906    12.111110696     1.652192652
 H        0.877358848    13.004742824     0.590935315
 H        1.648911448    14.035615504    -1.502765270
 H        3.317993478    11.461959768     3.102086178
 H        0.345551920    12.087186470     2.362425926
 H        2.525250244    13.160733604     5.223474395
 H        4.322198239    13.442637702     6.841565843
 H        3.830696611     9.375497305     8.161264842
 H        2.039812448     9.045167322     6.556655809
 H        5.719822853    12.669388884     8.542209760
 H        5.339724103     9.736402817     9.457521939
 H        7.229304164    13.030054145     9.842608790
 H        9.028913607    13.353875457    11.440287491
 H        8.531860763     9.241008300    12.773254366
 H        6.742257396     8.959055441    11.151097319
 H        4.009237115    18.263182441    -2.846174526
 H        2.926109001    18.707473762    -1.510096094
 H        4.125848963    17.028420599    -0.457168367
 H        2.788668489    16.074146401    -1.037698241
 H        4.899718674    16.144085478    -3.127212680
 H        5.623768184    15.735224431    -1.554364252
 H        2.263951702    -1.030481869     0.002189178
 H        2.271717987     0.515636221     0.888323525
 H        2.265678515     0.506224682    -0.897194972
 H       11.526111856    13.462887265    14.455638665
 H        9.861417449    13.924215095    14.019396570
 H       11.112631177    13.787975181    12.753621070
 H        9.538801871     9.697048899    14.916370238
 C       10.806493919    10.871796230    16.227388199
 C        8.429926864    11.414122001    15.642996037
 H       12.645488141    10.822352728    13.622353554
 C       11.647214436     9.073978373    12.807834314
 C       12.327190099    11.087875362    11.489252267
 H       -1.616253304    11.498860130     4.521722320
 C       -1.199321362    11.085700223     6.610902753
 C       -0.637965898    13.218729962     5.422294630
 H        0.279383242     8.561515091     5.198368409
 C       -0.963602320     8.851003374     3.447026228
 C        1.489020109     8.341862120     3.406023367
 H       -6.229474209    11.995347718    -0.417584255
 C       -6.038974178    14.072014444    -1.022935302
 C       -5.375620458    12.094247547    -2.411478867
 H       -4.407817076    14.162758236     1.717279525
 C       -5.288604760    12.327337318     2.474345436
 C       -2.866224438    12.928974039     2.631241467
 H       -1.796956898    -0.861900474    -1.444492372
 C       -0.301515212    -0.158847434    -2.849671870
 C       -0.236163218    -2.357364576    -1.647618022
 H       -0.015017830    -1.919822313     1.532127797
 C       -0.213288854    -0.205275547     2.852951572
 C       -2.082747262    -1.265641082     1.574983664
 H       11.749737243    10.379995202    15.956672329
 H       10.447137036    10.367490508    17.136242149
 H       11.039563017    11.903751038    16.521511815
 H        7.600347777    11.344517236    14.924786169
 H        8.539654760    12.471020029    15.919765475
 H        8.095493576    10.889868824    16.549534379
 H       11.377161116     8.631241791    13.774840815
 H       12.585626020     8.589434136    12.500904556
 H       10.890568357     8.766672866    12.072182630
 H       12.570311875    12.157925609    11.466343491
 H       11.602288479    10.894080505    10.685493433
 H       13.248026862    10.557723522    11.206744726
 H       -1.405098151    10.008537497     6.557990324
 H       -2.125047170    11.557682756     6.970088298
 H       -0.450069162    11.242865772     7.399935589
 H       -0.398873635    13.735819875     4.482835658
 H        0.128061999    13.496757389     6.160216923
 H       -1.580457471    13.652443389     5.785245673
 H       -1.835972937     9.197049969     4.015161285
 H       -1.132009488     7.780476250     3.256047208
 H       -0.994167303     9.339588465     2.461935538
 H        2.466894463     8.389024626     3.903318649
 H        1.616309888     8.737242279     2.387864495
 H        1.250896680     7.274050283     3.295746651
 H       -6.225880064    14.500835566    -0.030006373
 H       -7.004089577    14.086538752    -1.549670137
 H       -5.382230118    14.765783762    -1.567187247
 H       -5.022466606    11.054533329    -2.459580329
 H       -4.714726847    12.699093688    -3.047542011
 H       -6.362759879    12.105208280    -2.895422881
 H       -6.258099710    12.459737847     1.977786980
 H       -5.415794242    12.710103475     3.497552956
 H       -5.107018033    11.247541938     2.572299078
 H       -2.002593604    13.482284343     2.236979744
 H       -2.558455864    11.878903148     2.754157981
 H       -3.046376604    13.321071555     3.642700852
 H       -0.634570076     0.888723024    -2.872659268
 H       -0.784059053    -0.652143216    -3.705487462
 H        0.776964538    -0.168281908    -3.055329611
 H       -0.531189879    -2.960913358    -0.779545455
 H        0.847228890    -2.474201258    -1.783301075
 H       -0.707448958    -2.827516155    -2.523027762
 H        0.861994524    -0.010941797     2.958169099
 H       -0.502402624    -0.811824252     3.723062909
 H       -0.735567161     0.756302725     2.960419773
 H       -2.424370353    -1.825255785     0.695166824
 H       -2.710194878    -0.369003028     1.670630521
 H       -2.315712217    -1.894486598     2.446906570

