187   

Si        0.000000000     0.000000000     0.000000000
 C        1.865108338     0.000000000     0.000000000
 C       -0.688582318     1.706830600     0.000000000
 C        0.105186912     2.810588820     0.327081325
 C       -0.432746697     4.097795390     0.322161033
 C       -1.774409334     4.309879758    -0.004722348
 C       -2.569637911     3.202071212    -0.328243330
 C       -2.035867643     1.916734196    -0.324541516
 C       -2.383336097     5.635448185    -0.024091736
 C       -1.742583032     6.781337099     0.262886023
 C       -2.362921501     8.102165162     0.240049600
 C       -1.584300119     9.221672944     0.560136309
 C       -2.136430101    10.500795831     0.550673526
 C       -3.479173497    10.691386645     0.205380179
 C       -4.258752363     9.573921597    -0.117034827
 C       -3.706751699     8.294678931    -0.094323756
Si       -4.248923295    12.362389230     0.179795812
 C       -5.487536400    12.503880320    -1.158240092
 C       -5.417030451    11.827378705    -2.312811306
 C       -6.399716344    11.930004083    -3.392107956
 C       -6.208427331    11.165418083    -4.552976999
 C       -7.106553506    11.223700262    -5.604785442
 C       -8.218371589    12.092595835    -5.548117710
 C       -8.412008421    12.858470244    -4.384061651
 C       -7.524121443    12.755350493    -3.319779235
 N       -9.116090414    12.132079177    -6.631462677
 C       -8.525389534    12.045853409    -7.978947522
 C      -10.221144823    13.101035525    -6.552184998
 C       -7.495860003    13.155777251    -8.273272506
 C       -7.323729036    13.391219492    -9.784563847
 N       -8.165683053    14.474471092   -10.342514841
 C       -9.560148146    14.266337868   -10.157458079
 C      -10.137559596    13.152245175   -10.799175617
 C      -11.490779956    12.893576380   -10.659210734
 C      -12.315472007    13.746666462    -9.908881472
 C      -11.742073099    14.862565906    -9.296100691
 C      -10.382535175    15.130571872    -9.421595981
 C       -7.669089691    15.814608150    -9.983271784
 C      -13.740140324    13.425750045    -9.793497636
 C      -14.620600437    14.164026606    -9.105930090
Si      -16.405693082    13.809268571    -8.930202937
 C      -17.389140070    15.310043819    -9.329389283
 C      -16.828486401    16.343981617   -10.089028380
 C      -17.574914907    17.480497873   -10.390669984
 C      -18.899184713    17.606611380    -9.951390520
 C      -19.457332076    16.569075770    -9.198738813
 C      -18.712278142    15.431764626    -8.891038011
 C      -19.640263769    18.816392456   -10.292838114
 C      -20.910848189    19.062891284    -9.931145161
 C      -21.652582014    20.272298331   -10.272146715
 C      -21.097167767    21.310658225   -11.024172771
 C      -21.842955030    22.449762351   -11.327181807
 C      -23.161278398    22.577185979   -10.878679313
 C      -23.720592681    21.537016223   -10.123971345
 C      -22.975614717    20.399076495    -9.827588773
Si      -24.159254145    24.073900247   -11.269761524
 C      -23.096855941    25.451822356   -11.942176932
 C      -25.480034675    23.632541212   -12.567492139
 C      -25.038669892    24.637313414    -9.678345779
 C      -16.940581131    12.388210139   -10.074371905
 C      -16.730158228    13.296707517    -7.126357849
 C       -5.120990095    12.661764937     1.843558128
 C       -2.920356662    13.702045394    -0.063299159
 C       -0.650441967    -0.908672473    -1.541741302
 C       -0.613755530    -0.924089925     1.546928151
 H        1.161445962     2.706888710     0.589973898
 H        0.206620579     4.940734329     0.577770004
 H       -3.617557695     3.345360250    -0.585299253
 H       -2.705159169     1.091907043    -0.585104965
 H       -3.442809562     5.645755664    -0.298362105
 H       -0.684231708     6.775129807     0.537765473
 H       -0.536183084     9.093986898     0.823045118
 H       -1.482142615    11.335113209     0.816948857
 H       -5.315143696     9.663327748    -0.394103511
 H       -4.335126609     7.441856437    -0.344935574
 H       -6.306492800    13.210103239    -0.957664315
 H       -4.602822675    11.122902924    -2.537929143
 H       -5.344118945    10.503767252    -4.625663638
 H       -6.952067182    10.593874822    -6.476318541
 H       -9.256438184    13.534545905    -4.298353731
 H       -7.705897363    13.347552656    -2.421944103
 H      -10.874435628    12.994886968    -7.438820045
 H       -9.889043081    14.150027532    -6.503169550
 H      -10.842758635    12.873247000    -5.667934614
 H       -6.636802824    15.920158307   -10.361527853
 H       -7.665616332    16.026701038    -8.902862352
 H       -8.278116870    16.580164517   -10.495376249
 H       -9.514815382    12.503885520   -11.412209606
 H      -11.921957482    12.021484293   -11.151504985
 H      -12.363333976    15.543912007    -8.712589584
 H       -9.967645231    16.005311489    -8.929380122
 H      -14.022210799    12.512756423   -10.333836171
 H      -14.303495382    15.073462233    -8.567872625
 H      -15.800953465    16.297074947   -10.463938526
 H      -17.121895736    18.276971930   -10.978234323
 H      -20.484319895    16.642064756    -8.845749900
 H      -19.201688243    14.654110906    -8.298161585
 H      -19.079305770    19.544140766   -10.886588984
 H      -21.471810375    18.334676472    -9.338005292
 H      -20.071953924    21.237744547   -11.382489428
 H      -21.354425219    23.228187912   -11.919864795
 H      -24.746112024    21.581442268    -9.746348520
 H      -23.427943093    19.601108950    -9.241837728
 H       -8.057158418    11.042536525    -8.094352720
 H       -9.356657726    12.073498242    -8.721342410
 H       -7.802196504    14.094267374    -7.773202911
 H       -6.524947304    12.892197674    -7.812945227
 H       -6.262444273    13.638436137   -10.013583446
 H       -7.544323557    12.460951199   -10.354462815
 H        2.262543325    -1.029993753    -0.037796952
 H        2.275486470     0.481765324     0.904700533
 H        2.260768942     0.540991573    -0.878833548
 H      -23.696784685    26.359777659   -12.132271168
 H      -22.612496080    25.168619945   -12.893065821
 H      -22.300808432    25.724539111   -11.225664962
 H      -26.008739198    24.600680173   -12.805106540
 C      -24.866998274    23.090806943   -13.871876280
 C      -26.531163215    22.627863831   -12.062872099
 H      -25.689775547    23.771107256    -9.361818136
 C      -24.053257144    24.928578206    -8.532040483
 C      -25.949322206    25.861405755    -9.880489118
 H      -16.240478045    11.531169085    -9.852840653
 C      -18.378787199    11.904701644    -9.816383789
 C      -16.801540205    12.750762093   -11.564226323
 H      -17.828955223    13.047002764    -7.067007508
 C      -15.933733694    12.050085145    -6.703237545
 C      -16.447905262    14.435515594    -6.130211926
 H       -5.569194607    13.695055289     1.779015427
 C       -6.263404617    11.660568581     2.092249048
 C       -4.159193467    12.631262433     3.044134822
 H       -2.205049115    13.594894805     0.802515061
 C       -2.127252662    13.508174754    -1.368287893
 C       -3.488921699    15.132175147    -0.034012101
 H       -1.775011304    -0.919141531    -1.444051344
 C       -0.298662795    -0.176094798    -2.849211064
 C       -0.173605912    -2.368615668    -1.640938394
 H       -0.121894476    -1.938919777     1.511518680
 C       -0.188099489    -0.232420554     2.855038397
 C       -2.138275981    -1.134071872     1.573795059
 H      -24.164337993    23.787693542   -14.346582406
 H      -25.659135628    22.903003932   -14.610850533
 H      -24.343613352    22.133839445   -13.732670190
 H      -27.075323861    22.974420199   -11.175246583
 H      -26.103148982    21.641779235   -11.833685573
 H      -27.290583681    22.457656745   -12.840036019
 H      -23.404666012    24.074392225    -8.290140042
 H      -24.605289291    25.165033417    -7.611198832
 H      -23.403527297    25.790734951    -8.732751837
 H      -26.727945840    25.703952401   -10.637993418
 H      -25.393789423    26.767885835   -10.155206187
 H      -26.475603005    26.096235445    -8.943760087
 H      -18.537475382    11.531938181    -8.796518445
 H      -18.619159979    11.067670452   -10.488249976
 H      -19.133406520    12.679157731   -10.013856811
 H      -15.790855509    13.074867729   -11.847218319
 H      -17.498248241    13.542639118   -11.875911608
 H      -17.031612515    11.876015066   -12.188667783
 H      -16.148437600    11.166622187    -7.318233777
 H      -16.188962934    11.773303869    -5.670182276
 H      -14.845924967    12.210210096    -6.718847674
 H      -17.017107402    15.351461729    -6.343270790
 H      -15.384997480    14.708359103    -6.080491916
 H      -16.734806511    14.126854632    -5.114745722
 H       -7.024821883    11.661581013     1.300279318
 H       -6.788255986    11.911165419     3.024921097
 H       -5.907215638    10.626808120     2.209059707
 H       -3.364787846    13.386135855     2.985778374
 H       -3.680206193    11.651513735     3.184051134
 H       -4.710448612    12.837190024     3.973080999
 H       -1.637305202    12.527336301    -1.440804054
 H       -1.327475021    14.258425016    -1.439731024
 H       -2.748536792    13.632627828    -2.267245431
 H       -4.005150699    15.377246118     0.902852105
 H       -4.183002675    15.332537308    -0.862253078
 H       -2.673190705    15.862627519    -0.134224921
 H       -0.658308951     0.862588058    -2.874789754
 H       -0.767178795    -0.684133911    -3.704089195
 H        0.779909396    -0.157448091    -3.054216427
 H       -0.452852412    -2.977368578    -0.771297752
 H        0.912569861    -2.456355393    -1.775919790
 H       -0.631424361    -2.854057059    -2.515129296
 H        0.898783406    -0.116327957     2.954060446
 H       -0.513029617    -0.829162354     3.719443307
 H       -0.641954694     0.761343785     2.979732702
 H       -2.516099926    -1.698334527     0.711901635
 H       -2.698069402    -0.189765716     1.630997464
 H       -2.421815047    -1.711764501     2.465685681

