187   

Si        0.000000000     0.000000000     0.000000000
 C        1.865076794     0.000000000     0.000000000
 C       -0.674564811     1.712894830     0.000000000
 C        0.117628982     2.796319386    -0.393598155
 C       -0.400007192     4.091272985    -0.391123548
 C       -1.720225541     4.332223241    -0.001800877
 C       -2.514122588     3.245224379     0.387294889
 C       -2.000139248     1.951433502     0.386692280
 C       -2.303062202     5.669435544     0.016103144
 C       -1.650254870     6.791292175    -0.331645989
 C       -2.233401755     8.127856351    -0.313562326
 C       -3.553712328     8.368275750     0.075856053
 C       -4.069885572     9.664055077     0.077762560
 C       -3.273404524    10.747034828    -0.305944621
 C       -1.949547080    10.508288382    -0.700046945
 C       -1.439748490     9.213263200    -0.708021646
Si       -3.916704936    12.470206696    -0.316941403
 C       -3.264245220    13.400873788    -1.749662228
 C       -2.941320988    12.836572062    -2.921449447
 C       -2.418625302    13.569435708    -4.074961505
 C       -2.117893985    12.862799317    -5.247980159
 C       -1.620630787    13.507547191    -6.369047565
 C       -1.356471141    14.894252752    -6.337421229
 C       -1.652925880    15.604566548    -5.156088442
 C       -2.190696243    14.948092112    -4.057334436
 N       -0.854150261    15.550427153    -7.466966763
 C       -0.149937260    14.768678945    -8.491999553
 C       -0.364593594    16.925137865    -7.294856149
 C        1.152617741    14.097838810    -8.022515275
 C        2.307206833    15.111458332    -7.939796684
 N        3.593216105    14.541692479    -7.519166897
 C        3.760056980    14.170451785    -6.171681665
 C        2.780528461    14.420175432    -5.191253660
 C        2.993124488    14.034168918    -3.875278614
 C        4.203927452    13.452763444    -3.476215599
 C        5.187883822    13.234870398    -4.446025254
 C        4.977912379    13.582931318    -5.771982848
 C        4.191244168    13.636011107    -8.516277246
 C        4.378943761    13.062916290    -2.076587227
 C        5.490835845    12.500033631    -1.582987092
Si        5.681592295    12.022694633     0.172594397
 C        4.043156068    11.572475440     0.873495404
 C        3.206601076    10.740214717     0.115830426
 C        1.957292339    10.370300689     0.600968679
 C        1.518860310    10.807219907     1.858593381
 C        2.356320606    11.630934138     2.613848959
 C        3.606801183    12.012246811     2.125715119
 C        0.200183869    10.386411516     2.312428323
 C       -0.365454966    10.726212801     3.482759794
 C       -1.691341406    10.280808415     3.897268791
 C       -2.477520382     9.454952466     3.089661710
 C       -3.740520930     9.041455008     3.504728387
 C       -4.253634294     9.460475342     4.737460667
 C       -3.473381026    10.295686225     5.545494294
 C       -2.207367412    10.702336455     5.128432105
Si       -5.926815651     8.889153936     5.244666545
 C       -6.201688519     7.116193160     4.734502956
 C       -6.150288657     9.079792105     7.122715506
 C       -7.196086995    10.006189165     4.363684309
 C        6.851606090    10.528263374     0.289559528
 C        6.453445529    13.473989961     1.130206297
 C       -5.818472725    12.459701521    -0.364211091
 C       -3.365068826    13.354634234     1.274549460
 C       -0.623686141    -0.915784254    -1.547582240
 C       -0.651874655    -0.909488704     1.540353414
 H        1.157815079     2.670433235    -0.706775555
 H        0.239348140     4.918017611    -0.696108788
 H       -3.544822108     3.411041400     0.694878702
 H       -2.666754663     1.143332502     0.700390250
 H       -3.345789983     5.709145986     0.344317566
 H       -0.606611423     6.749809286    -0.656857274
 H       -4.193619949     7.541550293     0.377231915
 H       -5.109558105     9.790488118     0.393031688
 H       -1.281716414    11.319915419    -1.012529485
 H       -0.416038734     9.042425100    -1.036385662
 H       -3.166579665    14.484738178    -1.590969053
 H       -3.036066812    11.756583825    -3.105166663
 H       -2.286062118    11.785300870    -5.285902458
 H       -1.428100298    12.930238823    -7.267539086
 H       -1.474805605    16.672304529    -5.090164017
 H       -2.422759511    15.524243740    -3.160241720
 H        0.087246142    17.298528428    -8.227901404
 H        0.377672515    17.025602677    -6.483826682
 H       -1.223789729    17.585205413    -7.068259720
 H        3.834493550    13.879161570    -9.529582982
 H        3.974380790    12.573446236    -8.318201431
 H        5.287520367    13.778513136    -8.517672185
 H        1.835902153    14.888909414    -5.452065968
 H        2.202463471    14.199644556    -3.140453766
 H        6.139679204    12.784260229    -4.162077457
 H        5.764615691    13.407316861    -6.498742641
 H        3.491380055    13.265575634    -1.458669487
 H        6.369469711    12.311391961    -2.215951911
 H        3.496938609    10.370195296    -0.873515351
 H        1.316123406     9.729963634    -0.002440648
 H        2.037820334    11.983240294     3.592595391
 H        4.219852305    12.657948932     2.759435730
 H       -0.338000519     9.741947991     1.605104615
 H        0.156076042    11.366628058     4.197234907
 H       -2.103844927     9.119240791     2.119909471
 H       -4.299560377     8.386460564     2.829349952
 H       -3.823698272    10.654426665     6.516299410
 H       -1.614700884    11.350608342     5.770157110
 H       -0.856141836    13.990822891    -8.871662290
 H        0.049441370    15.430987187    -9.364980402
 H        0.999592496    13.608973510    -7.038462075
 H        1.418568286    13.277370332    -8.713817682
 H        2.463022882    15.596001627    -8.931582581
 H        2.052693754    15.938969714    -7.237797720
 H        2.262942791    -1.028370961     0.066850032
 H        2.259849386     0.565717000     0.863843492
 H        2.275885074     0.456403876    -0.917447487
 H       -7.183737501     6.749426301     5.080472275
 H       -5.427645193     6.458859305     5.172342915
 H       -6.164045112     6.990468029     3.638474195
 H       -5.948736646    10.166799720     7.351831791
 C       -7.576349120     8.757321326     7.605556420
 C       -5.148906612     8.231528955     7.927911443
 H       -8.210024920     9.598077270     4.638649782
 C       -7.127422256    11.474212419     4.822213896
 C       -7.061769844     9.965983974     2.829745441
 H        7.833925008    10.869514720    -0.148609492
 C        7.104690007    10.075203415     1.738227488
 C        6.358894390     9.322449505    -0.530693976
 H        6.501401364    13.145515771     2.208474665
 C        7.884504076    13.811356337     0.673785506
 C        5.595587088    14.750040834     1.052465576
 H       -6.147826470    11.876536045     0.545193626
 C       -6.437287500    13.865699401    -0.270376830
 C       -6.374368160    11.753147792    -1.613352463
 H       -3.706412768    14.424498995     1.164078369
 C       -4.008333452    12.778194677     2.546237562
 C       -1.835888436    13.355317016     1.442296206
 H       -0.144200433    -1.936504197    -1.513787992
 C       -2.150961815    -1.106535363    -1.571120671
 C       -0.192036546    -0.228298939    -2.855834126
 H       -1.776545940    -0.916412417     1.443098372
 C       -0.179862247    -2.371393295     1.635624971
 C       -0.296275281    -0.181232667     2.849087737
 H       -8.346439599     9.380905741     7.133404692
 H       -7.655899141     8.938405126     8.687383959
 H       -7.854821045     7.706780739     7.449617596
 H       -4.099599254     8.426275434     7.664441488
 H       -5.319803059     7.151982670     7.819592297
 H       -5.243288951     8.453083353     9.000453518
 H       -7.306399956    11.604028624     5.896866452
 H       -7.899902289    12.065402559     4.309884639
 H       -6.165006603    11.950698215     4.583839750
 H       -7.172646942     8.958850412     2.408890008
 H       -6.101826347    10.375860066     2.479628477
 H       -7.847055326    10.580676631     2.367201447
 H        7.544271923    10.857949029     2.369668698
 H        7.813884672     9.235076955     1.751808535
 H        6.194457814     9.715013858     2.238987936
 H        6.188678262     9.555264049    -1.590524532
 H        5.431926991     8.886389171    -0.131480053
 H        7.109386985     8.519632219    -0.507719177
 H        8.585566298    12.974317897     0.783789908
 H        8.289359869    14.631656501     1.284056689
 H        7.930797222    14.154067270    -0.369301973
 H        4.564378452    14.609067779     1.403892609
 H        5.540777073    15.163623440     0.034514175
 H        6.031471929    15.537500601     1.682843924
 H       -6.149505476    14.408165659     0.639593912
 H       -7.534046515    13.793474509    -0.250394088
 H       -6.188063294    14.500225820    -1.132056089
 H       -6.023246538    10.718328137    -1.724828824
 H       -6.132199891    12.283676939    -2.545688806
 H       -7.470898989    11.703598000    -1.563712185
 H       -5.104084693    12.822995376     2.545072725
 H       -3.676601776    13.346040717     3.427250717
 H       -3.717037396    11.732821849     2.740436274
 H       -1.296447507    13.775778328     0.583624526
 H       -1.427915456    12.349203289     1.630038224
 H       -1.551687676    13.961828332     2.313461488
 H       -2.531696645    -1.678332718    -0.715426600
 H       -2.445394457    -1.667931683    -2.469754829
 H       -2.699699345    -0.154950704    -1.611961159
 H        0.895984666    -0.124895998    -2.956281429
 H       -0.634606957     0.770690305    -2.978973900
 H       -0.525020345    -0.820465702    -3.720240700
 H       -0.458448384    -2.976216421     0.763146864
 H       -0.641666962    -2.858461676     2.506809355
 H        0.905675586    -2.462757490     1.773345244
 H       -0.651836059     0.858861779     2.877829280
 H        0.782740499    -0.166625536     3.052731842
 H       -0.765341977    -0.689795072     3.703359159

