187   

Si        0.000000000     0.000000000     0.000000000
 C        1.865002415     0.000000000     0.000000000
 C       -0.671608252     1.714020892     0.000000000
 C        0.086567808     2.773070866    -0.510659666
 C       -0.420818577     4.071380112    -0.511239794
 C       -1.695069806     4.341480231    -0.004390899
 C       -2.455235640     3.279229878     0.501117539
 C       -1.953062690     1.980412823     0.499366441
 C       -2.262348599     5.685583008     0.013226030
 C       -1.629147786     6.777490630    -0.447047840
 C       -2.174504480     8.129329770    -0.440255514
 C       -3.445272653     8.426097929     0.060549566
 C       -3.926756157     9.734164380     0.047074513
 C       -3.161131169    10.767005540    -0.505111132
 C       -1.893104221    10.470388944    -1.019520384
 C       -1.404375043     9.167421823    -0.980840385
Si       -3.800933321    12.491935489    -0.520575836
 C       -2.533555308    13.589384482    -1.250193920
 C       -2.754337114    14.475902928    -2.228970965
 C       -1.723675381    15.345031118    -2.798359960
 C       -2.088859542    16.232282673    -3.823068901
 C       -1.156438783    17.077403288    -4.398559498
 C        0.188220223    17.040428631    -3.974950447
 C        0.556314622    16.160513141    -2.946731927
 C       -0.399242808    15.338171312    -2.357715047
 N        1.095924569    17.929410320    -4.601333143
 C        1.142630417    17.814987770    -6.076237159
 C        2.423190032    18.056943065    -3.978415030
 C        1.085835597    16.383182897    -6.638567155
 C        2.286604625    15.537473972    -6.180803281
 N        2.363569077    14.211162398    -6.801782727
 C        1.530795727    13.177097736    -6.344153805
 C        0.706270258    13.311674974    -5.210525991
 C       -0.100507974    12.260444206    -4.796229451
 C       -0.084799374    11.027478025    -5.460927514
 C        0.754596550    10.888306868    -6.571714821
 C        1.552065233    11.933845812    -7.010638350
 C        2.632122863    14.250370566    -8.249180211
 C       -0.949150921     9.938702038    -4.997435264
 C       -0.990885523     8.732486195    -5.579411009
Si       -2.022620523     7.305468445    -5.092902015
 C       -2.915301635     6.626087045    -6.550432982
 C       -3.031070766     7.369704925    -7.728973106
 C       -3.709311799     6.848582727    -8.830496077
 C       -4.295606325     5.581483527    -8.773998912
 C       -4.185118034     4.841502698    -7.588780996
 C       -3.505329379     5.356658679    -6.488681127
 C       -5.014503312     4.996042816    -9.900689455
 C       -5.193533751     5.595521579   -11.090065729
 C       -5.912677133     5.008886490   -12.215930682
 C       -6.495119504     3.740047713   -12.159919477
 C       -7.173983673     3.217243104   -13.260493456
 C       -7.291497651     3.957125663   -14.441183444
 C       -6.709221442     5.230681800   -14.499797360
 C       -6.027134724     5.747185401   -13.401718974
Si       -8.183802925     3.282383873   -15.902618701
 C       -9.157056466     1.751658877   -15.466653553
 C       -9.348259407     4.635335551   -16.564170882
 C       -6.932010794     2.840489434   -17.266813894
 C       -0.847907052     5.982586270    -4.375304800
 C       -3.299545812     7.787343608    -3.773370635
 C       -5.413892573    12.604179043    -1.521871349
 C       -4.144399777    13.023521663     1.271374846
 C       -0.626686303    -0.889913532    -1.561854322
 C       -0.652564158    -0.929397127     1.527085496
 H        1.090509408     2.624112977    -0.917970424
 H        0.189387451     4.878020697    -0.915279942
 H       -3.450562636     3.467013913     0.899015156
 H       -2.593160720     1.191449890     0.903372345
 H       -3.267859020     5.756649640     0.435715770
 H       -0.619020096     6.695201013    -0.863216317
 H       -4.066027289     7.635803674     0.477540611
 H       -4.917782008     9.909697979     0.474429089
 H       -1.253432896    11.235893057    -1.470982498
 H       -0.412123569     8.958303458    -1.379196322
 H       -1.535436370    13.481456537    -0.794740197
 H       -3.739676090    14.618177792    -2.692975911
 H       -3.121704228    16.260115845    -4.171276521
 H       -1.457126903    17.776872476    -5.174609204
 H        1.583536235    16.108732991    -2.598974238
 H       -0.094418359    14.667944474    -1.552413770
 H        2.944921683    18.920673163    -4.426780484
 H        3.066309364    17.169550550    -4.080444639
 H        2.300510524    18.284237069    -2.903830846
 H        3.133749278    15.190249075    -8.529157303
 H        1.718148043    14.150201783    -8.857863999
 H        3.322810427    13.426847716    -8.509427543
 H        0.666294659    14.249724643    -4.661048698
 H       -0.755016316    12.405058366    -3.933630873
 H        0.790860395     9.939557697    -7.110047565
 H        2.196968897    11.782309035    -7.869974771
 H       -1.567128812    10.207566032    -4.130532417
 H       -0.345885842     8.503006180    -6.445285749
 H       -2.598553988     8.370597810    -7.827789028
 H       -3.781291408     7.443351757    -9.738991685
 H       -4.635863614     3.853304852    -7.524694299
 H       -3.451827035     4.735921933    -5.589043761
 H       -5.418333355     3.996304902    -9.715449930
 H       -4.790180189     6.595242224   -11.275451771
 H       -6.421895106     3.145277525   -11.251258189
 H       -7.606733119     2.218455594   -13.156830036
 H       -6.769657793     5.854908452   -15.395732207
 H       -5.580092621     6.737339182   -13.466872383
 H        0.271865224    18.394790703    -6.467518870
 H        2.049442909    18.336358705    -6.451674585
 H        0.142123433    15.884832260    -6.335788836
 H        1.047675979    16.427130089    -7.742728571
 H        3.239587636    16.069509733    -6.409176548
 H        2.267409291    15.407455128    -5.072900207
 H        2.263002439    -1.028988112     0.056445365
 H        2.259485382     0.557203502     0.869401995
 H        2.276483389     0.465951558    -0.912319012
 H       -9.723344172     1.378525486   -16.338526421
 H       -9.886063756     1.961361078   -14.662944707
 H       -8.500513791     0.933738591   -15.121776874
 H       -8.684587023     5.504930876   -16.843028463
 C      -10.126866191     4.214213097   -17.823117989
 C      -10.344836925     5.127186253   -15.498874225
 H       -7.539271790     2.378697086   -18.098239290
 C       -6.186940202     4.058369877   -17.841835535
 C       -5.894137607     1.802827095   -16.800897059
 H       -1.480424125     5.333810750    -3.703214143
 C       -0.217860755     5.077202585    -5.448685071
 C        0.284223533     6.595079707    -3.530707694
 H       -2.724873905     8.331759361    -2.965845766
 C       -4.367848371     8.747241732    -4.327135558
 C       -4.006152355     6.587801385    -3.118642253
 H       -5.670936561    13.703432593    -1.553027767
 C       -5.244875417    12.108429586    -2.969043511
 C       -6.603277681    11.863565093    -0.885709990
 H       -4.930753808    12.311692403     1.657408165
 C       -2.904960785    12.893835144     2.174580518
 C       -4.699133368    14.454213854     1.381379594
 H       -0.148710167    -1.911525367    -1.548501767
 C       -2.154462309    -1.076605393    -1.582634410
 C       -0.198650572    -0.177927750    -2.858305292
 H       -1.777543103    -0.930748926     1.432847832
 C       -0.186508479    -2.394666120     1.598108532
 C       -0.290352218    -0.224093970     2.846722631
 H       -9.477632231     3.918627355   -18.657337249
 H      -10.732523639     5.056172072   -18.188801608
 H      -10.828536050     3.390356054   -17.637169229
 H       -9.855828282     5.500251767   -14.587377393
 H      -11.064978890     4.355812498   -15.195660787
 H      -10.936810225     5.964847333   -15.894207291
 H       -6.855123471     4.816962083   -18.268521127
 H       -5.523354818     3.740421295   -18.659213340
 H       -5.543071884     4.552910301   -17.100835040
 H       -6.342141931     0.863890997   -16.451157233
 H       -5.243817029     2.180174241   -15.998426740
 H       -5.229643309     1.534142268   -17.634532259
 H       -0.958565076     4.550231043    -6.065449812
 H        0.393776988     4.298412092    -4.971274176
 H        0.448447916     5.620283061    -6.131657253
 H       -0.075451495     7.264925710    -2.738805486
 H        1.001944047     7.166451520    -4.137029339
 H        0.859121752     5.798804651    -3.038229756
 H       -3.947649245     9.679427948    -4.729804024
 H       -5.060681031     9.036254256    -3.523018670
 H       -4.985782507     8.294228784    -5.115080560
 H       -3.316630617     5.906040808    -2.601338957
 H       -4.601456833     5.997539120    -3.826905480
 H       -4.705940485     6.944543252    -2.348259269
 H       -4.442143838    12.616142231    -3.521788845
 H       -6.168699304    12.281266725    -3.538420095
 H       -5.044952256    11.027746424    -3.024749202
 H       -6.824021742    12.185949008     0.139497999
 H       -6.472353924    10.772774023    -0.876864171
 H       -7.516895474    12.054301207    -1.468138125
 H       -2.478802110    11.880688326     2.185836494
 H       -3.172720027    13.123543656     3.215994123
 H       -2.100969437    13.591052452     1.902490535
 H       -5.637515346    14.601439900     0.831332405
 H       -3.987284052    15.217434462     1.035882390
 H       -4.918833171    14.692959454     2.432055786
 H       -2.532184496    -1.669149729    -0.739741110
 H       -2.454871788    -1.614312276    -2.493757262
 H       -2.701579754    -0.123228412    -1.596037840
 H        0.889353191    -0.076890848    -2.961659679
 H       -0.639099320     0.824576057    -2.960649301
 H       -0.537202539    -0.752667982    -3.732414620
 H       -0.470564317    -2.984611449     0.717096401
 H       -0.647723441    -2.893419017     2.462999552
 H        0.899076092    -2.493064432     1.730837598
 H       -0.638674112     0.817556056     2.892971959
 H        0.789156836    -0.220157221     3.048585928
 H       -0.761057223    -0.743529227     3.693581871

