187   

Si        0.000000000     0.000000000     0.000000000
 C        1.864968952     0.000000000     0.000000000
 C       -0.682210638     1.709837953     0.000000000
 C        0.085858404     2.790137625    -0.446521673
 C       -0.438095527     4.082766918    -0.443465930
 C       -1.740897933     4.324433464     0.000039196
 C       -2.511241469     3.240223015     0.441364391
 C       -1.991362245     1.948879693     0.438767635
 C       -2.332217072     5.657963661     0.021862104
 C       -1.708656975     6.781359663    -0.372121389
 C       -2.307027656     8.112153716    -0.347304888
 C       -1.546865734     9.203457421    -0.786800585
 C       -2.077932230    10.491493425    -0.780456465
 C       -3.378517862    10.720216685    -0.317421597
 C       -4.139149465     9.631056476     0.125434655
 C       -3.609726969     8.342228669     0.105178154
Si       -4.121503316    12.402972399    -0.290303959
 C       -5.182526447    12.641318182     1.179572493
 C       -4.980072910    12.030659795     2.355032869
 C       -5.824672736    12.216343582     3.535510248
 C       -5.509431577    11.519999088     4.710185120
 C       -6.276381814    11.659875047     5.856160465
 C       -7.435144828    12.465224633     5.848111490
 C       -7.755315725    13.160506767     4.664885957
 C       -6.946627306    13.050198182     3.542022745
 N       -8.219763577    12.613535166     7.005224064
 C       -8.122356834    11.568110177     8.037461359
 C       -9.598048251    13.098264484     6.813623127
 C       -8.655688001    10.202849516     7.573757152
 C       -8.380532514     9.131106205     8.640977605
 N       -8.923952870     7.808262968     8.291435214
 C      -10.321271728     7.673113993     8.218803896
 C      -11.171019462     8.557650816     8.916586567
 C      -12.547751984     8.417291586     8.839498326
 C      -13.131786111     7.367097214     8.118412554
 C      -12.288457893     6.471588726     7.454409019
 C      -10.908176384     6.610906968     7.502350889
 C       -8.136915291     7.126075757     7.249084276
 C      -14.590922657     7.266744824     8.070347956
 C      -15.258757883     6.308238939     7.414219098
Si      -17.081967526     6.185333146     7.355889098
 C      -17.881461353     7.837722263     7.475769034
 C      -17.262731327     8.946924674     6.886487785
 C      -17.848730702    10.209066908     6.963751071
 C      -19.070684218    10.390285205     7.618217661
 C      -19.692132188     9.277563875     8.199475651
 C      -19.106813146     8.015487762     8.128295692
 C      -19.720398991    11.692623376     7.723416523
 C      -19.230781166    12.834655703     7.211383954
 C      -19.878940495    14.137728283     7.315545885
 C      -21.097754668    14.323547526     7.972915856
 C      -21.681952306    15.587888121     8.048486058
 C      -21.055446489    16.696739211     7.471022237
 C      -19.833017006    16.512937447     6.810552353
 C      -19.255190661    15.248924916     6.732175691
Si      -21.813631180    18.371837967     7.562208892
 C      -23.199800838    18.431112899     8.809033926
 C      -20.453864922    19.618886090     8.031005374
 C      -22.506216704    18.845661292     5.853704477
 C      -17.576888584     5.384477090     5.702967164
 C      -17.667290963     5.063230164     8.776464932
 C       -2.760898126    13.732558051    -0.291463258
 C       -5.191391195    12.625220646    -1.847517819
 C       -0.623750811    -0.912139167    -1.549826426
 C       -0.648080359    -0.919404190     1.536325215
 H        1.111541682     2.663399073    -0.803858966
 H        0.181099115     4.906852063    -0.793088886
 H       -3.529044524     3.406228778     0.789202530
 H       -2.640686530     1.143063756     0.792205430
 H       -3.360706816     5.694910846     0.393511813
 H       -0.681079865     6.747208529    -0.745016289
 H       -0.530377853     9.046350858    -1.142082742
 H       -1.440632701    11.302146039    -1.143683629
 H       -5.162063941     9.751284001     0.498956129
 H       -4.222715271     7.511693316     0.450194482
 H       -6.010438671    13.352095768     1.039485043
 H       -4.155155097    11.322890478     2.521629839
 H       -4.636607311    10.865522882     4.731105866
 H       -5.977387426    11.131997095     6.756534208
 H       -8.629445468    13.802052414     4.619699016
 H       -7.207791972    13.615053685     2.645799435
 H      -10.144464441    13.088966806     7.771371466
 H      -10.171253772    12.503044534     6.083652230
 H       -9.567326162    14.149425275     6.473657998
 H       -7.067869090     7.377440442     7.349002398
 H       -8.456635550     7.381093881     6.225054778
 H       -8.222689262     6.033170600     7.389586118
 H      -10.756819364     9.365055692     9.512712085
 H      -13.185176226     9.130467797     9.364563022
 H      -12.715681594     5.643641799     6.886516185
 H      -10.290521883     5.890699837     6.975634806
 H      -15.097605359     8.069364769     8.625371686
 H      -14.728184144     5.509607565     6.874435369
 H      -16.307192570     8.864823550     6.357017364
 H      -17.344699154    11.056878483     6.503584559
 H      -20.644241287     9.396800387     8.712836887
 H      -19.638735845     7.185008980     8.600128923
 H      -20.670342840    11.687990550     8.265803559
 H      -18.281353852    12.838509027     6.667916047
 H      -21.604254473    13.477384367     8.433580214
 H      -22.636505672    15.670581317     8.575606157
 H      -19.297761624    17.342677203     6.340262828
 H      -18.306823840    15.125556834     6.212839909
 H       -7.058605533    11.489248317     8.359813484
 H       -8.679297366    11.916479039     8.937451216
 H       -9.740538282    10.265411262     7.362166387
 H       -8.189017887     9.914348036     6.611816234
 H       -7.284087383     9.021556580     8.807460046
 H       -8.800676600     9.437420730     9.626400543
 H        2.262652913    -1.029258321     0.053110556
 H        2.259799205     0.554288066     0.871047085
 H        2.276239056     0.468654084    -0.911047567
 H      -23.619462830    19.449787988     8.889759352
 H      -22.841793775    18.139442169     9.813149419
 H      -24.026187377    17.752142314     8.535191627
 H      -19.680986748    19.556618892     7.210542528
 C      -20.951822763    21.073485437     8.099466673
 C      -19.760484295    19.262691236     9.358538803
 H      -23.001942228    19.849628234     5.993407367
 C      -21.424597758    18.995107711     4.768943395
 C      -23.571594784    17.852779125     5.353816226
 H      -17.070188347     4.376719526     5.680842480
 C      -19.093279791     5.160458584     5.570297824
 C      -17.082865131     6.194363874     4.490733970
 H      -18.787970373     4.985238947     8.672881105
 C      -17.084501577     3.640442321     8.704889991
 C      -17.353452882     5.661424610    10.159629427
 H       -2.153332807    13.557473345    -1.225865167
 C       -3.315057248    15.167437693    -0.348596752
 C       -1.822326089    13.609575706     0.922424235
 H       -5.612882208    13.670095729    -1.789269508
 C       -4.388119352    12.505200470    -3.154252682
 C       -6.370607624    11.636929160    -1.892836133
 H       -0.149366659    -1.935182252    -1.516585917
 C       -2.151960958    -1.094673977    -1.575514182
 C       -0.186298694    -0.225344382    -2.856510964
 H       -1.772748727    -0.930604013     1.439893934
 C       -0.170435018    -2.379924766     1.624269945
 C       -0.294479163    -0.196642296     2.848799961
 H      -21.396375301    21.425473771     7.159571482
 H      -20.110145224    21.748553797     8.312702202
 H      -21.686310467    21.237759223     8.899039313
 H      -19.328825603    18.251555439     9.364851918
 H      -20.428342887    19.342405846    10.226520152
 H      -18.926226356    19.953764867     9.545614481
 H      -20.664035367    19.747882174     5.011785344
 H      -21.883928738    19.318238286     3.823279508
 H      -20.907449194    18.050307727     4.549649765
 H      -24.427423845    17.751876649     6.033565454
 H      -23.167305198    16.845803095     5.175981084
 H      -23.982021062    18.193102652     4.392239661
 H      -19.507200692     4.507773532     6.349428797
 H      -19.319105360     4.673485863     4.610564135
 H      -19.667385984     6.098072956     5.579333429
 H      -15.995915554     6.353573519     4.485373819
 H      -17.563405946     7.180237817     4.411917489
 H      -17.321153357     5.661960437     3.559108075
 H      -17.333144709     3.113471637     7.775062979
 H      -17.490381786     3.027000547     9.522236976
 H      -15.991680558     3.620302458     8.820770599
 H      -17.786984560     6.659216295    10.313548153
 H      -16.273948026     5.737610870    10.356408582
 H      -17.766495142     5.020499241    10.951060175
 H       -3.931689255    15.361775409    -1.235269904
 H       -2.485893511    15.888649947    -0.388503850
 H       -3.908314856    15.432026712     0.537973414
 H       -1.341178766    12.625470213     1.006680223
 H       -2.331769340    13.809218978     1.876651251
 H       -1.009071872    14.344963194     0.847369901
 H       -3.580557908    13.243503632    -3.239118114
 H       -5.047797228    12.671562456    -4.018167252
 H       -3.946096383    11.508377493    -3.295048680
 H       -7.026926120    11.699658421    -1.014139941
 H       -6.047141648    10.590721659    -1.992275529
 H       -7.004184558    11.845843333    -2.766450092
 H       -2.536361536    -1.669396915    -0.723423200
 H       -2.448882200    -1.649296516    -2.477590548
 H       -2.695888545    -0.139985980    -1.611144441
 H        0.902451963    -0.128370353    -2.955299406
 H       -0.623132143     0.776225192    -2.979311114
 H       -0.521497140    -0.814650404    -3.722106677
 H       -0.447138302    -2.981508337     0.748843200
 H       -0.630121570    -2.873181253     2.493102177
 H        0.915508783    -2.468009543     1.761090262
 H       -0.652624907     0.842199996     2.882726254
 H        0.784520603    -0.180519025     3.052436341
 H       -0.762052160    -0.710959424     3.700443784

