187   

Si        0.000000000     0.000000000     0.000000000
 C        1.865323784     0.000000000     0.000000000
 C       -0.655405055     1.721064528     0.000000000
 C        0.030796313     2.728049875    -0.688703790
 C       -0.451445182     4.036086821    -0.698926081
 C       -1.633830049     4.366468197    -0.031270190
 C       -2.324133500     3.356005564     0.650764974
 C       -1.843707554     2.048979551     0.664303691
 C       -2.176093369     5.720214037    -0.014568231
 C       -1.616287366     6.779577511    -0.623435084
 C       -2.170562088     8.128897477    -0.598076726
 C       -3.355423716     8.433274329     0.077406274
 C       -3.856836282     9.733180836     0.081257020
 C       -3.183122155    10.758078453    -0.591832583
 C       -1.997483765    10.456075009    -1.272880597
 C       -1.500372031     9.154521712    -1.277489251
Si       -3.849997723    12.471385102    -0.582961029
 C       -2.517980016    13.648548376    -0.165018893
 C       -2.184086833    14.766975771    -0.821530063
 C       -1.091920412    15.649084668    -0.402022279
 C       -0.805102317    16.803258501    -1.144821188
 C        0.221959865    17.656884438    -0.772603082
 C        1.013025286    17.373214439     0.360729165
 C        0.766605596    16.185141137     1.065679429
 C       -0.234215193    15.316230622     0.649509162
 N        2.055354596    18.265258141     0.715335146
 C        1.674708196    19.698226867     0.694059980
 C        2.822639108    17.905536108     1.922285355
 C        0.349664481    20.049972017     1.400374526
 C        0.512485993    20.380490833     2.897963225
 N       -0.571004235    19.874394459     3.777384866
 C       -0.490031877    18.448832804     3.924125315
 C        0.396112573    17.977318666     4.906232289
 C        0.536305714    16.613146167     5.114776396
 C       -0.163378197    15.689931303     4.324178671
 C       -1.060953960    16.173051982     3.367453267
 C       -1.262443384    17.538739023     3.196023024
 C       -1.903585466    20.370802494     3.390675539
 C        0.015163915    14.257484044     4.579901773
 C       -0.602496209    13.292815448     3.886829764
Si       -0.427278457    11.492041900     4.150574654
 C       -2.083247244    10.707577126     4.270340502
 C       -3.105903932    11.282927838     5.033535624
 C       -4.355318435    10.670536151     5.110553210
 C       -4.611409610     9.475016536     4.426658130
 C       -3.587180294     8.903414841     3.666747562
 C       -2.335934619     9.510582112     3.590772405
 C       -5.931421106     8.861968839     4.530225505
 C       -6.280122401     7.716674070     3.919517715
 C       -7.592227113     7.086771250     4.009145195
 C       -8.640029094     7.627580206     4.758028426
 C       -9.879124864     6.989587966     4.814677234
 C      -10.098428099     5.798571387     4.115696182
 C       -9.049037099     5.255124713     3.361965372
 C       -7.812073030     5.891092091     3.311600511
Si      -11.727348516     4.943359170     4.179312524
 C      -13.046381959     6.032532172     4.923229116
 C      -12.207658710     4.445055953     2.406066978
 C      -11.574569275     3.364363348     5.231361562
 C        0.581706135    10.783696049     2.701270664
 C        0.525569756    11.120370869     5.755569603
 C       -4.627839002    12.846529127    -2.275168441
 C       -5.190519985    12.660315598     0.757154525
 C       -0.635423808    -0.894943542    -1.554849305
 C       -0.647339205    -0.932331691     1.528276996
 H        0.960042386     2.530398147    -1.230796400
 H        0.103850642     4.802106501    -1.237150347
 H       -3.247547630     3.591668686     1.177028243
 H       -2.426550613     1.303143575     1.211657441
 H       -3.108907558     5.829957940     0.547576388
 H       -0.685731799     6.673914553    -1.186966436
 H       -3.900849694     7.654193013     0.606718965
 H       -4.787633320     9.907095036     0.631370272
 H       -1.429644151    11.220636215    -1.812347745
 H       -0.580121823     8.935325019    -1.814527443
 H       -1.975566329    13.348564031     0.750741478
 H       -2.701387481    15.108233854    -1.725004484
 H       -1.407979768    17.046147985    -2.019217291
 H        0.428888526    18.541917731    -1.367689678
 H        1.361355642    15.915419670     1.935487256
 H       -0.356628683    14.368203304     1.179580549
 H        3.636268774    18.633947003     2.071496219
 H        3.299360659    16.920873240     1.766525571
 H        2.214230470    17.863316138     2.842405405
 H       -1.909474918    21.468984808     3.501319135
 H       -2.655866807    19.964419906     4.089356737
 H       -2.212042979    20.124067323     2.363777361
 H        0.952855141    18.693095440     5.508636624
 H        1.207140906    16.258494963     5.896359287
 H       -1.655802387    15.477547596     2.770589427
 H       -1.990645843    17.885746391     2.467434317
 H        0.713348394    14.048949666     5.399768789
 H       -1.302019482    13.540296267     3.068475003
 H       -2.961688766    12.218987760     5.581739564
 H       -5.139302771    11.128742602     5.709581625
 H       -3.756935973     7.974313005     3.125318680
 H       -1.577583452     9.012512368     2.977085133
 H       -6.645659906     9.404746894     5.154204188
 H       -5.559129133     7.176764318     3.297078558
 H       -8.495856678     8.555832109     5.307943547
 H      -10.660435013     7.459775620     5.418362395
 H       -9.163580704     4.327388770     2.794161983
 H       -7.008972325     5.453552338     2.720976827
 H        2.510745111    20.296103810     1.115921176
 H        1.608980574    19.993270490    -0.380344071
 H       -0.122730925    20.904202567     0.882168650
 H       -0.366068203    19.210612949     1.276631352
 H        1.473777196    19.975209725     3.284611635
 H        0.560328220    21.482159258     3.044149184
 H        2.263998255    -1.028412411     0.059147880
 H        2.258006123     0.560124991     0.868504513
 H        2.277532325     0.465377976    -0.912055379
 H      -14.028403302     5.526605799     4.921220960
 H      -13.155710126     6.970479209     4.348994476
 H      -12.813409762     6.301835564     5.968355641
 H      -11.391036397     3.752719438     2.047878679
 C      -13.541874788     3.682677614     2.322275338
 C      -12.256740639     5.649206812     1.448242421
 H      -12.614535709     2.929072491     5.279291564
 C      -10.641967130     2.302639943     4.621508125
 C      -11.112889967     3.657676760     6.670701310
 H        0.654798097     9.673146666     2.890448396
 C       -0.092401203    10.991622974     1.337082985
 C        2.012454265    11.349226697     2.635119310
 H        1.503492254    11.676824066     5.673293152
 C       -0.206187396    11.622296306     7.013472160
 C        0.841831742     9.624615382     5.932842174
 H       -4.957486767    13.924996891    -2.232251458
 C       -3.630433685    12.698592888    -3.438580750
 C       -5.865733655    11.981178773    -2.572124778
 H       -5.961724762    11.865116239     0.543603433
 C       -4.644200497    12.432718768     2.176183072
 C       -5.895453796    14.028342855     0.713791506
 H       -0.178836318    -1.926145818    -1.525727251
 C       -2.166772399    -1.049921728    -1.579447809
 C       -0.186616745    -0.211410421    -2.859315181
 H       -1.773587543    -0.898250598     1.458886151
 C       -0.225855198    -2.412491512     1.567258563
 C       -0.233299506    -0.261538157     2.850741827
 H      -13.557802731     2.766217882     2.926199289
 H      -13.730507229     3.369954485     1.284864059
 H      -14.404208701     4.294161886     2.619335305
 H      -11.314483141     6.214661299     1.413281211
 H      -13.059169367     6.358393231     1.690885083
 H      -12.446835656     5.306530749     0.421078512
 H      -10.947769349     1.977132355     3.619219279
 H      -10.640673575     1.399523783     5.249284957
 H       -9.596208481     2.635980829     4.564449178
 H      -11.776431722     4.345685452     7.210277949
 H      -10.095413767     4.072000482     6.716955036
 H      -11.092884276     2.727625275     7.256780320
 H       -1.127227799    10.619226316     1.293626679
 H        0.452016088    10.439829866     0.556726700
 H       -0.100955947    12.042563974     1.017529336
 H        2.604030588    11.148798005     3.536722756
 H        2.037426843    12.432989001     2.451855763
 H        2.559425420    10.884968316     1.801711755
 H       -0.442691079    12.694418691     6.987079107
 H        0.421810327    11.466730252     7.902038274
 H       -1.144324378    11.080922528     7.203199724
 H        1.454184964     9.208731791     5.122227936
 H       -0.060716159     9.003111407     6.021971213
 H        1.413138833     9.467565141     6.859084777
 H       -2.726520948    13.311822265    -3.323088742
 H       -4.100308368    13.016123647    -4.380083823
 H       -3.308961419    11.658530620    -3.592577792
 H       -6.670262248    12.103149129    -1.835216359
 H       -5.633276958    10.908701315    -2.637484085
 H       -6.296024374    12.260280376    -3.544599537
 H       -4.125728529    11.469951307     2.306137689
 H       -5.469502689    12.424659732     2.902572494
 H       -3.954076465    13.222843796     2.503068412
 H       -6.397504724    14.230686161    -0.240301547
 H       -5.214876060    14.867115283     0.918772446
 H       -6.677336129    14.070966620     1.485665613
 H       -2.560531781    -1.620546496    -0.728771075
 H       -2.475154932    -1.595200613    -2.483256901
 H       -2.693700904    -0.085526297    -1.609200885
 H        0.903667820    -0.135765504    -2.959225179
 H       -0.604963184     0.798551012    -2.977800302
 H       -0.534484184    -0.790909957    -3.726605297
 H       -0.554977699    -2.981547497     0.688210775
 H       -0.676730956    -2.907920559     2.439478404
 H        0.859449926    -2.546985108     1.665728969
 H       -0.534990334     0.793183324     2.919037399
 H        0.848970077    -0.306492974     3.032417249
 H       -0.710250351    -0.773405660     3.698744752

