187   

Si        0.000000000     0.000000000     0.000000000
 C        1.865043510     0.000000000     0.000000000
 C       -0.681339435     1.710013735     0.000000000
 C        0.107211663     2.801381714     0.378051361
 C       -0.419773343     4.092793087     0.374209072
 C       -1.745790165     4.322158949    -0.001557369
 C       -2.536185596     3.226925119    -0.375200604
 C       -2.013101630     1.936911551    -0.372692081
 C       -2.340929820     5.654111422    -0.021227989
 C       -1.698629235     6.786726736     0.311549826
 C       -2.299600145     8.116350599     0.289822204
 C       -1.517531264     9.217571482     0.661332548
 C       -2.049803109    10.504957348     0.655393251
 C       -3.375194981    10.722784175     0.261786260
 C       -4.157978972     9.623896123    -0.112099454
 C       -3.626241196     8.335828830    -0.092511768
Si       -4.113606538    12.407685098     0.240732845
 C       -5.315685322    12.598518939    -1.123976955
 C       -5.234712512    11.942759175    -2.289789594
 C       -6.191835805    12.089331587    -3.386916807
 C       -5.995550949    11.344921145    -4.559434409
 C       -6.870663215    11.445515062    -5.627934153
 C       -8.016692342    12.266175362    -5.539266668
 C       -8.215731319    13.011516453    -4.361613533
 C       -7.301556590    12.934865814    -3.317963052
 N       -8.895544171    12.358310621    -6.631529961
 C       -9.044203229    11.168599052    -7.488389736
 C      -10.142798711    13.109802905    -6.428106250
 C       -9.489939856     9.889340611    -6.759408116
 C      -11.011518133     9.784955538    -6.558469356
 N      -11.763584587     9.272233002    -7.718000453
 C      -11.381338321     8.021849898    -8.233754085
 C      -10.909849353     7.019698373    -7.357637786
 C      -10.528811267     5.781760419    -7.847983295
 C      -10.642443001     5.473862609    -9.211435890
 C      -11.137454366     6.456602641   -10.072429043
 C      -11.510011408     7.708926500    -9.600074282
 C      -12.149019873    10.307333239    -8.688538664
 C      -10.224902821     4.149859741    -9.676232664
 C      -10.288740210     3.748097728   -10.952342370
Si       -9.783011471     2.111461769   -11.588869076
 C      -11.128014747     1.408137822   -12.627641787
 C      -12.450014684     1.828208751   -12.445746263
 C      -13.474225974     1.299000790   -13.229871740
 C      -13.202965339     0.331968496   -14.201741735
 C      -11.878948775    -0.092214787   -14.376476724
 C      -10.852584450     0.437625526   -13.598686988
 C      -14.242218087    -0.249606722   -15.044892353
 C      -15.546556654     0.067527919   -14.980744653
 C      -16.585247628    -0.514466739   -15.824226095
 C      -16.313013442    -1.477652638   -16.799126401
 C      -17.336942513    -2.007695775   -17.583798365
 C      -18.659585044    -1.590788497   -17.404133078
 C      -18.935628229    -0.625738599   -16.426007622
 C      -17.910438276    -0.093566240   -15.648977369
Si      -20.021564929    -2.281124078   -18.431939924
 C      -19.480269482    -3.811150649   -19.351386952
 C      -21.488989965    -2.686747091   -17.289056977
 C      -20.585593544    -0.974434124   -19.696080123
 C       -8.212390999     2.334783658   -12.640270952
 C       -9.399812960     0.903093702   -10.171587316
 C       -5.022877098    12.697355289     1.886548406
 C       -2.753768742    13.724872156     0.054526856
 C       -0.650833936    -0.912035789    -1.539488018
 C       -0.619632993    -0.918721859     1.547612714
 H        1.151509661     2.684576447     0.680648004
 H        0.216067315     4.925563032     0.669206340
 H       -3.571924014     3.383314891    -0.670744498
 H       -2.678036762     1.122409118    -0.673441886
 H       -3.388382783     5.681285433    -0.336377530
 H       -0.651780634     6.761700947     0.627247566
 H       -0.482187360     9.068783774     0.961572164
 H       -1.393891238    11.323839784     0.962867491
 H       -5.201091235     9.734992863    -0.427835487
 H       -4.256731479     7.497622844    -0.383348230
 H       -6.122503100    13.320588831    -0.929255506
 H       -4.431908908    11.224380169    -2.511530565
 H       -5.131408103    10.683125635    -4.639151646
 H       -6.667912851    10.883816046    -6.535584713
 H       -9.078016290    13.660307315    -4.252568086
 H       -7.470857281    13.536665702    -2.423811988
 H      -10.740152920    13.110812550    -7.354752016
 H       -9.894608016    14.165849076    -6.209722959
 H      -10.766431104    12.717895390    -5.607969093
 H      -12.433729069    11.232928405    -8.161458644
 H      -13.046794031     9.966952777    -9.238661421
 H      -11.358783741    10.546985594    -9.418807386
 H      -10.839297830     7.215000509    -6.291200279
 H      -10.147009637     5.030356648    -7.155701487
 H      -11.237734902     6.244423730   -11.138425530
 H      -11.887916785     8.440829371   -10.306044300
 H       -9.851755323     3.506661026    -8.868476492
 H      -10.662643728     4.422157863   -11.741384997
 H      -12.722507042     2.578967951   -11.696374167
 H      -14.494202831     1.646074087   -13.074672806
 H      -11.646877790    -0.844422819   -15.127764123
 H       -9.839112773     0.069861267   -13.780159146
 H      -13.884757769    -0.991701388   -15.764748220
 H      -15.904293907     0.809243201   -14.260460430
 H      -15.292740536    -1.823087672   -16.955549910
 H      -17.061742030    -2.756566569   -18.331570129
 H      -19.950339983    -0.262360076   -16.240308261
 H      -18.144607265     0.656394865   -14.895715090
 H       -9.747338657    11.412389675    -8.314508313
 H       -8.060355351    10.991325867    -7.986891316
 H       -9.125709687     9.004116679    -7.320341828
 H       -8.986850943     9.827303383    -5.772448893
 H      -11.228128143     9.108735724    -5.696219444
 H      -11.435528505    10.770967497    -6.268365680
 H        2.262573240    -1.030032984    -0.037299579
 H        2.276454859     0.482417941     0.903789497
 H        2.259869087     0.540427365    -0.879682492
 H      -20.314851010    -4.241556581   -19.933230603
 H      -19.127975439    -4.590263274   -18.651080075
 H      -18.659200638    -3.596356679   -20.057514038
 H      -21.789074004    -1.708305594   -16.812530458
 C      -22.714492390    -3.241746614   -18.036448938
 C      -21.105365967    -3.661678384   -16.161149773
 H      -21.381217769    -1.477500169   -20.318355059
 C      -21.206449525     0.278471867   -19.052739977
 C      -19.449944705    -0.534207178   -20.637910970
 H       -7.920193391     1.301489863   -12.986796694
 C       -8.456328338     3.202687337   -13.887685566
 C       -7.033545945     2.920541577   -11.843221968
 H       -8.637937294     1.420825926    -9.519654810
 C      -10.638770737     0.592876946    -9.311956250
 C       -8.788470037    -0.425004075   -10.653388644
 H       -5.446236205    13.741434264     1.829148328
 C       -6.193188139    11.717658625     2.086672430
 C       -4.094266071    12.623876121     3.111110020
 H       -2.064818992    13.590389521     0.937807037
 C       -1.928883903    13.534251113    -1.231047473
 C       -3.295323378    15.165175419     0.090046374
 H       -1.775373042    -0.921683040    -1.441581962
 C       -0.298599301    -0.183453055    -2.849100716
 C       -0.174725719    -2.372513395    -1.634817154
 H       -0.138952524    -1.938808244     1.510930486
 C       -0.185421978    -0.232893653     2.855893987
 C       -2.146518857    -1.111775364     1.574687161
 H      -23.092349544    -2.566040394   -18.814545996
 H      -23.545607359    -3.394426729   -17.332527246
 H      -22.525586960    -4.217403188   -18.503483185
 H      -20.267121104    -3.304735348   -15.545597405
 H      -20.842481311    -4.662151986   -16.529440066
 H      -21.953710785    -3.797543581   -15.475310673
 H      -22.088302351     0.060339615   -18.437228499
 H      -21.543703571     0.973963489   -19.835157895
 H      -20.491954657     0.839204254   -18.433617612
 H      -19.004322534    -1.363696858   -21.201809250
 H      -18.636447848    -0.014403992   -20.111434104
 H      -19.833988042     0.174026907   -21.386031448
 H       -9.262723981     2.823789528   -14.531325546
 H       -7.551942126     3.227725371   -14.512067761
 H       -8.690446143     4.247720398   -13.642590995
 H       -6.740185150     2.303926856   -10.983881956
 H       -7.230728489     3.936454969   -11.471945823
 H       -6.144719128     2.995242504   -12.485860224
 H      -11.116024998     1.487132409    -8.888425943
 H      -10.357739116    -0.040999053    -8.459285850
 H      -11.412116518     0.039751317    -9.864564315
 H       -7.838369036    -0.298798931   -11.187784968
 H       -9.466260256    -0.998093210   -11.301742067
 H       -8.571033808    -1.072860769    -9.791748824
 H       -6.933976723    11.751416158     1.276285568
 H       -6.735644145    11.961937968     3.010948507
 H       -5.862980510    10.674047395     2.191624650
 H       -3.281798017    13.361263625     3.086944959
 H       -3.641408060    11.631035248     3.245745415
 H       -4.665100871    12.826321406     4.028919485
 H       -1.457770999    12.544417914    -1.306001472
 H       -1.111700887    14.268196699    -1.268088250
 H       -2.521805354    13.686450166    -2.144848273
 H       -3.835031287    15.405854983     1.014669596
 H       -3.959559010    15.392192162    -0.755671872
 H       -2.462833393    15.880800205     0.026361083
 H       -0.655916193     0.855917664    -2.877195131
 H       -0.768504035    -0.692883283    -3.702359483
 H        0.779956717    -0.167583179    -3.054671201
 H       -0.454886891    -2.978913789    -0.763822267
 H        0.911517120    -2.461003449    -1.768913626
 H       -0.632257966    -2.859897845    -2.508057341
 H        0.902835665    -0.129844150     2.954303379
 H       -0.516887653    -0.826331010     3.720106191
 H       -0.627675240     0.765955769     2.981371322
 H       -2.528564301    -1.681879163     0.718478290
 H       -2.696431461    -0.161005752     1.619723255
 H       -2.437852241    -1.676081285     2.472579344

