187   

Si        0.000000000     0.000000000     0.000000000
 C        1.865253142     0.000000000     0.000000000
 C       -0.689963901     1.705838748     0.000000000
 C        0.128593333     2.823153374     0.190971256
 C       -0.413283963     4.108514746     0.187666643
 C       -1.784137253     4.304987228     0.002221519
 C       -2.603664290     3.184039920    -0.186677681
 C       -2.065037262     1.900702598    -0.189816711
 C       -2.395914314     5.629137203    -0.008871380
 C       -1.724802835     6.781627950     0.154288693
 C       -2.334839196     8.106750327     0.143502092
 C       -3.705616981     8.303325568    -0.041926235
 C       -4.247194124     9.588841519    -0.045178792
 C       -3.420713582    10.707409303     0.096270492
 C       -2.043046811    10.513096730     0.269138194
 C       -1.509270129     9.228594329     0.299164232
Si       -4.112056120    12.416622874     0.095140624
 C       -3.063468443    13.477855926     1.153707655
 C       -2.404714547    12.970157255     2.204629609
 C       -1.544384092    13.727874264     3.110275045
 C       -0.929867336    13.032582489     4.163469349
 C       -0.102649259    13.686170603     5.058891607
 C        0.168854023    15.059835151     4.895179112
 C       -0.447088534    15.759512697     3.846374709
 C       -1.314378598    15.098124011     2.982393454
 N        1.024510760    15.673181990     5.846141350
 C        2.334430017    15.020410048     6.030432810
 C        1.110779262    17.141123256     5.796199249
 C        3.376707232    15.226801871     4.911176769
 C        3.266295784    14.228609559     3.741699060
 N        2.348491081    14.661131679     2.663473096
 C        2.209574005    13.748630310     1.577861080
 C        3.011041652    12.611511910     1.399937355
 C        2.801542600    11.776328740     0.307030190
 C        1.764442592    12.012339808    -0.601822216
 C        0.939550137    13.125715675    -0.394426462
 C        1.143975546    13.972956066     0.682947128
 C        2.599596065    16.043447610     2.198377638
 C        1.593629188    11.097193860    -1.734119139
 C        0.639304902    11.221402244    -2.666183266
Si        0.400172253    10.095644361    -4.091287527
 C        1.992425239     9.354034929    -4.640291717
 C        3.177304140    10.089339148    -4.515603991
 C        4.394636437     9.547860213    -4.924769963
 C        4.455439815     8.266139586    -5.479348042
 C        3.267665300     7.535657823    -5.612380954
 C        2.050141393     8.073007598    -5.201396404
 C        5.706610443     7.659233322    -5.921333659
 C        6.910968025     8.251221025    -5.849330864
 C        8.162745904     7.645434824    -6.290932702
 C        8.227173820     6.363421892    -6.842683935
 C        9.446387233     5.823226686    -7.251722068
 C       10.630564532     6.553852641    -7.112509661
 C       10.568816880     7.840044243    -6.559190583
 C        9.349887776     8.378120266    -6.156364353
Si       12.247201235     5.854904791    -7.647472775
 C       12.129779251     4.021088637    -7.969019495
 C       12.812579910     6.721170952    -9.245447532
 C       13.530256387     6.202333281    -6.284666343
 C       -0.850171887     8.721891104    -3.697797292
 C       -0.321651918    11.144962459    -5.507867973
 C       -4.111273615    13.091216456    -1.682080061
 C       -5.895820157    12.411981908     0.749389929
 C       -0.657753230    -0.896939513    -1.545040987
 C       -0.598280128    -0.933873894     1.547573511
 H        1.207599935     2.731214273     0.343043880
 H        0.246877813     4.961878173     0.333919012
 H       -3.673882564     3.315362119    -0.333951897
 H       -2.753247535     1.065240895    -0.346522151
 H       -3.478226699     5.632437845    -0.165562624
 H       -0.642213748     6.777141263     0.316982955
 H       -4.367167300     7.449692122    -0.172684151
 H       -5.328746999     9.678069801    -0.174296556
 H       -1.341049058    11.351330781     0.371549377
 H       -0.436668627     9.101059644     0.443806163
 H       -3.014970607    14.541595121     0.892580336
 H       -2.461207674    11.903640641     2.479321963
 H       -1.106609152    11.962839000     4.281348972
 H        0.338760450    13.140619087     5.888456674
 H       -0.250974109    16.814452083     3.692639165
 H       -1.796852688    15.658572171     2.182311063
 H        1.699735444    17.498424387     6.657967927
 H        0.094395561    17.562542397     5.900650694
 H        1.563918211    17.541411676     4.876061968
 H        2.101315101    16.739017140     2.896202315
 H        2.158897105    16.220557470     1.203248976
 H        3.670481005    16.291423324     2.137307308
 H        3.818162784    12.383857792     2.088096398
 H        3.455042370    10.914435934     0.169450737
 H        0.110176545    13.322923837    -1.075155637
 H        0.466382275    14.807298077     0.860187693
 H        2.334649467    10.286169138    -1.750238652
 H       -0.096499349    12.040432381    -2.614512804
 H        3.191017490    11.099873186    -4.093027008
 H        5.302539861    10.137169585    -4.810677362
 H        3.292707207     6.536276617    -6.042309116
 H        1.156476285     7.456253995    -5.332973846
 H        5.605864363     6.650755430    -6.332971902
 H        7.011296747     9.259981434    -5.438060882
 H        7.320318398     5.772833921    -6.959078400
 H        9.433230593     4.815606913    -7.676186046
 H       11.461777556     8.457201592    -6.425782277
 H        9.321578072     9.379310531    -5.730489001
 H        2.750905525    15.408271545     6.990409657
 H        2.166514141    13.931504956     6.191780606
 H        3.335132366    16.268918998     4.550089049
 H        4.386350654    15.118137583     5.357240547
 H        4.292442675    14.037892528     3.348825811
 H        2.870060328    13.256296751     4.121847027
 H        2.262836338    -1.030176825    -0.029572154
 H        2.274039820     0.488729479     0.901889588
 H        2.262472078     0.533936457    -0.882410073
 H       13.115252174     3.600299697    -8.237379677
 H       11.435039078     3.794484074    -8.796609281
 H       11.772873234     3.483421472    -7.071899707
 H       13.771514032     6.208767895    -9.547167851
 C       11.801261688     6.556647767   -10.394731453
 C       13.110881397     8.220040773    -9.062290942
 H       13.568743728     7.325231189    -6.175217405
 C       13.118260083     5.611125172    -4.924246097
 C       14.946909327     5.713941217    -6.635319594
 H       -1.010454847     8.167248905    -4.668693729
 C       -0.312906429     7.719557877    -2.662986375
 C       -2.214967560     9.253326708    -3.231226853
 H       -1.311950146    11.533068459    -5.130484651
 C        0.565788687    12.354683481    -5.851446601
 C       -0.582893238    10.336572541    -6.790065363
 H       -4.591491027    14.110081186    -1.629415294
 C       -2.689514593    13.260125627    -2.247056092
 C       -4.931412663    12.224150253    -2.653826352
 H       -6.490547067    11.771661459     0.035963409
 C       -6.002753262    11.789265898     2.153117689
 C       -6.535745976    13.811703398     0.775059405
 H       -1.782409032    -0.895494261    -1.446907623
 C       -0.299178413    -0.162327239    -2.849616136
 C       -0.195444915    -2.361045764    -1.649961244
 H       -0.073063402    -1.932324342     1.519988046
 C       -0.201389832    -0.221047354     2.853544009
 C       -2.114627219    -1.195818679     1.571555603
 H       11.596385973     5.508790098   -10.649043239
 H       12.191599139     7.023900646   -11.310232756
 H       10.837142294     7.043561774   -10.188285796
 H       13.890658261     8.421463700    -8.316997523
 H       12.220053101     8.801440047    -8.785403345
 H       13.473107301     8.648713488   -10.008171356
 H       12.132689381     5.957422260    -4.581214897
 H       13.836517716     5.913091362    -4.148697899
 H       13.102606265     4.513206671    -4.920368881
 H       15.339096858     6.147643747    -7.564296445
 H       15.013962397     4.621364518    -6.721953367
 H       15.650456601     6.002491745    -5.840749433
 H        0.599694920     7.201303756    -2.985205159
 H       -1.061989657     6.935235614    -2.473499220
 H       -0.105583970     8.183332869    -1.687908076
 H       -2.699083931     9.920986403    -3.953160210
 H       -2.160661716     9.781713842    -2.265714919
 H       -2.909808099     8.415876346    -3.070212868
 H        0.753913902    13.016216842    -4.994992157
 H        0.080147598    12.973225613    -6.619083670
 H        1.541605807    12.063334417    -6.265622707
 H       -1.291320382     9.510359685    -6.647386182
 H        0.334698170     9.918011558    -7.227258187
 H       -1.020435577    10.985254105    -7.562345520
 H       -2.064186461    13.937209672    -1.649585374
 H       -2.731943552    13.688320135    -3.258237340
 H       -2.159124872    12.300407605    -2.340537345
 H       -5.985287624    12.122891295    -2.366245282
 H       -4.519407091    11.211180968    -2.774006103
 H       -4.931060800    12.677239745    -3.655526934
 H       -5.621678167    10.759718790     2.204214326
 H       -7.054534717    11.744291982     2.468134599
 H       -5.475370054    12.374382249     2.920847810
 H       -6.574023783    14.292253120    -0.210518078
 H       -6.028176986    14.500288602     1.465267679
 H       -7.576840572    13.742248459     1.122196409
 H       -0.650652985     0.879257032    -2.871158926
 H       -0.771665166    -0.663045595    -3.706580824
 H        0.779588392    -0.151773893    -3.054059919
 H       -0.479439811    -2.970019279    -0.782019815
 H        0.889734029    -2.458617584    -1.786370027
 H       -0.658916779    -2.838828644    -2.525348987
 H        0.880374911    -0.065576885     2.955391971
 H       -0.507858226    -0.824482180     3.719963738
 H       -0.690005565     0.756955331     2.971370653
 H       -2.475336029    -1.755861674     0.699701061
 H       -2.705185103    -0.272161914     1.648411612
 H       -2.376543611    -1.799622992     2.452756211

