187   

Si        0.000000000     0.000000000     0.000000000
 C        1.865218058     0.000000000     0.000000000
 C       -0.666778548     1.716245597     0.000000000
 C        0.088413285     2.770371422    -0.525289807
 C       -0.413749730     4.071198755    -0.526742644
 C       -1.682572864     4.348140576    -0.010437187
 C       -2.440462872     3.290291050     0.508813171
 C       -1.941880665     1.990132469     0.511278974
 C       -2.247556197     5.693461873     0.008354760
 C       -1.625438327     6.789768075    -0.457647759
 C       -2.186934904     8.136333576    -0.440621051
 C       -3.454847298     8.418775696     0.074329257
 C       -3.951853171     9.721934269     0.070180694
 C       -3.196445712    10.768832486    -0.466639231
 C       -1.925853446    10.488055021    -0.987467459
 C       -1.427260839     9.188595533    -0.969268976
Si       -3.818512774    12.500215720    -0.489826844
 C       -3.277047949    13.388264021    -1.993489904
 C       -3.051873355    12.793417580    -3.172964613
 C       -2.618528440    13.495471579    -4.381357952
 C       -2.416498527    12.757928418    -5.556758421
 C       -2.006535558    13.372839532    -6.728264697
 C       -1.828682212    14.772627404    -6.777165339
 C       -2.031712341    15.513825425    -5.596867848
 C       -2.397550335    14.874698819    -4.419374645
 N       -1.412321353    15.387458947    -7.970876806
 C       -1.845638987    14.767462691    -9.235741295
 C       -1.450359122    16.859542401    -8.011321602
 C       -3.374716203    14.759032586    -9.412629607
 C       -3.812090108    14.495820418   -10.863006993
 N       -3.329569340    15.466234621   -11.874583620
 C       -3.212728661    16.799880198   -11.415228903
 C       -4.357177946    17.404491014   -10.853873630
 C       -4.298974455    18.707121945   -10.388711255
 C       -3.118046521    19.459140316   -10.490501168
 C       -1.995918754    18.864719841   -11.070921992
 C       -2.037488531    17.556432345   -11.540994908
 C       -2.210838862    14.953006638   -12.682531263
 C       -3.109112019    20.833010270    -9.982969369
 C       -2.039481000    21.637063245   -10.029503383
Si       -1.958787156    23.356959959    -9.416579180
 C       -0.476477154    23.535721694    -8.342326913
 C        0.037417461    22.415890046    -7.675783833
 C        1.158940160    22.536227602    -6.859287781
 C        1.785075430    23.776742301    -6.679081237
 C        1.264388216    24.892836836    -7.340268517
 C        0.144639484    24.775676611    -8.162828188
 C        2.957497734    23.851375939    -5.813509417
 C        3.652110675    24.973661992    -5.560328621
 C        4.824482842    25.047378331    -4.694573668
 C        5.344943750    23.931824587    -4.033687175
 C        6.468351000    24.047733331    -3.214993913
 C        7.100507026    25.283397145    -3.045120356
 C        6.581006529    26.403678166    -3.708157301
 C        5.456561068    26.285999240    -4.520157091
Si        8.584012919    25.454015230    -1.968363962
 C        9.273942298    23.790627445    -1.481981368
 C        9.893348449    26.457932304    -2.917623758
 C        8.117242495    26.405845735    -0.387446782
 C       -1.827875047    24.527951208   -10.909421811
 C       -3.509010610    23.812089880    -8.415112352
 C       -5.719017736    12.524261781    -0.409269945
 C       -3.132007312    13.416227608     1.029643088
 C       -0.630680241    -0.905207593    -1.550759868
 C       -0.649988893    -0.920618505     1.534462039
 H        1.087591959     2.616275722    -0.942210477
 H        0.195959324     4.874039837    -0.937363258
 H       -3.431655905     3.483599060     0.914610857
 H       -2.580336831     1.206013327     0.927391152
 H       -3.249353211     5.763361425     0.441793485
 H       -0.623200041     6.718326144    -0.890769960
 H       -4.066090096     7.619495205     0.488763914
 H       -4.946351429     9.882031055     0.495105646
 H       -1.291120046    11.269095375    -1.420489184
 H       -0.436775434     8.990297088    -1.374621969
 H       -3.161005010    14.475172964    -1.869833396
 H       -3.169680190    11.710260330    -3.322450817
 H       -2.572547257    11.678235646    -5.548704481
 H       -1.824753877    12.766540865    -7.610446165
 H       -1.897669909    16.590786888    -5.587756408
 H       -2.531158461    15.470515212    -3.515264314
 H       -1.154711269    17.222652989    -9.012221320
 H       -0.713954035    17.260188098    -7.291576136
 H       -2.443786538    17.281399345    -7.785614350
 H       -2.514307313    13.995520429   -13.142073968
 H       -1.277279003    14.790491111   -12.122281015
 H       -2.010273126    15.651946369   -13.514621255
 H       -5.286028574    16.841656547   -10.794204410
 H       -5.189095752    19.157075538    -9.947692664
 H       -1.067448061    19.430341182   -11.167577542
 H       -1.145652153    17.129106516   -11.988899883
 H       -4.071116517    21.144150629    -9.556097008
 H       -1.089806194    21.294912882   -10.475227472
 H       -0.413946205    21.423124722    -7.775789863
 H        1.549746276    21.654709487    -6.354216548
 H        1.732213424    25.867822169    -7.216854443
 H       -0.216735812    25.682669251    -8.654923053
 H        3.253387959    22.899937076    -5.361583533
 H        3.356686902    25.925080306    -6.012172938
 H        4.874066175    22.957652222    -4.152194768
 H        6.828414148    23.139668842    -2.723329776
 H        7.034217576    27.394643697    -3.613833285
 H        5.067189510    27.167567294    -5.025785300
 H       -1.357380997    15.323272262   -10.068766293
 H       -1.439147788    13.732869891    -9.285321427
 H       -3.824748709    13.995405942    -8.747790007
 H       -3.792941351    15.724112476    -9.060632090
 H       -3.511705917    13.469690242   -11.166946250
 H       -4.928042637    14.519197410   -10.915353443
 H        2.263641769    -1.027969568     0.068922931
 H        2.259115129     0.567843392     0.862812670
 H        2.276939778     0.455217827    -0.917506050
 H       10.187468058    23.901763559    -0.870759796
 H        9.542649863    23.196141934    -2.374025442
 H        8.548571723    23.203785142    -0.891526776
 H        9.418559572    27.458921997    -3.134382719
 C       11.178233353    26.710946232    -2.109135692
 C       10.266645200    25.813277683    -4.264851191
 H        9.048655679    26.412959066     0.249565890
 C        7.704094505    27.866320695    -0.642616642
 C        6.998861454    25.709840165     0.409942488
 H       -1.794506148    25.572660097   -10.483894925
 C       -0.540572451    24.304775187   -11.722982196
 C       -3.040131621    24.437140567   -11.852777387
 H       -4.389231112    23.593659118    -9.086674607
 C       -3.654833099    22.963032840    -7.139009864
 C       -3.565051926    25.300684657    -8.027468495
 H       -5.999133550    11.997394945     0.548144957
 C       -6.305609369    13.946443405    -0.356492669
 C       -6.363336874    11.763293570    -1.582020556
 H       -3.545420912    14.464451023     0.975161353
 C       -3.579986581    12.793707373     2.363437457
 C       -1.595490143    13.507324353     1.011008851
 H       -0.164806594    -1.932119781    -1.519648754
 C       -2.160517914    -1.074356486    -1.574349526
 C       -0.188943064    -0.220398502    -2.857110250
 H       -1.775200341    -0.919891650     1.443944686
 C       -0.187116690    -2.386608897     1.611803212
 C       -0.281818686    -0.209677618     2.849431558
 H       10.999718908    27.236573948    -1.162149408
 H       11.866376811    27.344891908    -2.687194658
 H       11.729535066    25.789004450    -1.881320631
 H        9.401089555    25.653507207    -4.923701811
 H       10.778888880    24.848571816    -4.152175793
 H       10.956222424    26.467032179    -4.817699783
 H        8.477788560    28.457157203    -1.148962602
 H        7.509050506    28.373276028     0.313796241
 H        6.777229383    27.950967549    -1.227168887
 H        7.248551300    24.683175280     0.707287101
 H        6.044082083    25.675400820    -0.134295534
 H        6.801957052    26.259891413     1.341366926
 H        0.375928165    24.393146032   -11.122639630
 H       -0.460883146    25.061031376   -12.516991909
 H       -0.515549656    23.328044778   -12.225377587
 H       -3.992846884    24.674474852   -11.362059681
 H       -3.144865696    23.448389869   -12.322083659
 H       -2.931088342    25.157393698   -12.676342116
 H       -3.662562339    21.880945384    -7.327749403
 H       -4.604739658    23.196165532    -6.637501808
 H       -2.862049844    23.162142710    -6.403219008
 H       -3.573397146    25.976031589    -8.892506839
 H       -2.737079715    25.604452732    -7.371229582
 H       -4.489039209    25.508612831    -7.468312397
 H       -5.954615640    14.531210358     0.503291258
 H       -7.400427974    13.897935871    -0.267271445
 H       -6.097873724    14.527942566    -1.265706716
 H       -6.038686787    10.716150462    -1.655380530
 H       -6.168983764    12.236791017    -2.555526806
 H       -7.455512398    11.739799512    -1.462963352
 H       -4.669506427    12.780722181     2.494188183
 H       -3.176906490    13.376104708     3.204651345
 H       -3.214388781    11.765889159     2.500681695
 H       -1.197784656    13.989614082     0.107492322
 H       -1.108771903    12.525838741     1.105266562
 H       -1.242844830    14.107492280     1.861677863
 H       -2.547982880    -1.649792441    -0.724050759
 H       -2.464282015    -1.621919777    -2.478365301
 H       -2.696418417    -0.114891997    -1.603523293
 H        0.900538045    -0.134272590    -2.957638711
 H       -0.616191844     0.785619099    -2.977272009
 H       -0.531596481    -0.804823976    -3.723050700
 H       -0.476383039    -2.980913207     0.735493891
 H       -0.645841459    -2.879283193     2.481477731
 H        0.898748957    -2.486964532     1.740450411
 H       -0.626507464     0.833461458     2.891010721
 H        0.798247881    -0.208096117     3.048155403
 H       -0.751839204    -0.723006408     3.700299484

