187   

Si        0.000000000     0.000000000     0.000000000
 C        1.865219808     0.000000000     0.000000000
 C       -0.674109436     1.713233971     0.000000000
 C        0.116290614     2.796008945     0.398911417
 C       -0.400996022     4.091273502     0.396407182
 C       -1.719500907     4.332921804     0.002237872
 C       -2.511846717     3.246444275    -0.392058024
 C       -1.998028573     1.952601920    -0.391781263
 C       -2.303707386     5.669770778    -0.016556347
 C       -1.657345157     6.794668829     0.334251240
 C       -2.246944281     8.129366802     0.313447017
 C       -1.462086374     9.221681444     0.704745552
 C       -1.984154728    10.513303831     0.700239160
 C       -3.301999006    10.744050511     0.289695423
 C       -4.087652243     9.653815945    -0.103541613
 C       -3.566290128     8.361639681    -0.086354155
Si       -4.031644074    12.432836141     0.268062286
 C       -5.197950694    12.635526271    -1.126095963
 C       -5.084784732    11.985530677    -2.292344265
 C       -6.009849108    12.137782724    -3.415708833
 C       -5.779689618    11.398244669    -4.585015337
 C       -6.623137694    11.503687401    -5.678184817
 C       -7.774150149    12.319856074    -5.617602989
 C       -8.008400772    13.058726748    -4.442321038
 C       -7.123300662    12.980214268    -3.374005015
 N       -8.621686614    12.417900422    -6.734335400
 C       -8.724055722    11.239984562    -7.615074157
 C       -9.891633537    13.136335889    -6.549867484
 C       -9.144595615     9.935985093    -6.915427844
 C      -10.667001325     9.776870414    -6.762223629
 N      -11.353740767     9.192149707    -7.928140401
 C      -10.917237440     7.933250163    -8.374182933
 C      -10.381118323     7.006038800    -7.453647551
 C       -9.947731721     5.762278838    -7.881914250
 C      -10.075749717     5.370116929    -9.222234472
 C      -10.635455030     6.276510350   -10.126018733
 C      -11.057220959     7.535615865    -9.717679249
 C      -11.723068050    10.175647473    -8.957350994
 C       -9.600451629     4.044005910    -9.618670188
 C       -9.669469639     3.560627838   -10.866458632
Si       -9.075673059     1.903780866   -11.361958913
 C       -9.200846188     0.682784088    -9.991844515
 C      -10.216991051     0.804128660    -9.037090954
 C      -10.322639603    -0.114571891    -7.994030728
 C       -9.426068996    -1.181620997    -7.888332660
 C       -8.415628273    -1.306877271    -8.850669452
 C       -8.304818609    -0.388557581    -9.891845278
 C       -9.498189994    -2.166800845    -6.814461296
 C      -10.414861895    -2.161572863    -5.831818316
 C      -10.487025509    -3.146774705    -4.757878785
 C       -9.588701220    -4.211420267    -4.649539913
 C       -9.694538166    -5.130720172    -3.605944831
 C      -10.699598346    -5.000388090    -2.642467761
 C      -11.601768765    -3.933072758    -2.748578741
 C      -11.497267010    -3.020720152    -3.794760339
Si      -10.852714459    -6.205185317    -1.259073084
 C       -9.337567942    -7.284222358    -1.117664456
 C      -11.118972954    -5.230379973     0.354253927
 C      -12.369832260    -7.316974068    -1.550980272
 C      -10.140289462     1.298761634   -12.817714373
 C       -7.270147773     2.049422738   -11.944456217
 C       -4.979088876    12.714497215     1.893186459
 C       -2.662198315    13.745272115     0.124240139
 C       -0.653078652    -0.910047042    -1.539542248
 C       -0.625428623    -0.915560558     1.546853775
 H        1.154687837     2.669681253     0.717422711
 H        0.236005145     4.917172907     0.707564896
 H       -3.541870888     3.412608672    -0.702316020
 H       -2.663863360     1.144990194    -0.709004335
 H       -3.346011549     5.707648135    -0.347394662
 H       -0.615610454     6.758678115     0.665448086
 H       -0.432604842     9.062494290     1.019383781
 H       -1.326589107    11.324939367     1.022764573
 H       -5.125375732     9.775133417    -0.433168242
 H       -4.198761597     7.530469245    -0.392796616
 H       -6.009020995    13.356897545    -0.948928916
 H       -4.276710620    11.267074974    -2.494586252
 H       -4.912940407    10.737497774    -4.642936380
 H       -6.391542085    10.948587742    -6.582962350
 H       -8.875080181    13.704857752    -4.354541623
 H       -7.318580277    13.577895985    -2.482432563
 H      -10.466876659    13.138686226    -7.490227733
 H       -9.674329814    14.194298038    -6.309207034
 H      -10.524715617    12.716238265    -5.751213654
 H      -12.029673140    11.123550951    -8.485466569
 H      -12.602481702     9.800377681    -9.514125057
 H      -10.914262811    10.386084316    -9.676310967
 H      -10.298637221     7.263229912    -6.401337143
 H       -9.513528768     5.071191701    -7.157395188
 H      -10.748193790     5.997604573   -11.174776953
 H      -11.485900779     8.206119842   -10.454615037
 H       -9.179619616     3.468315506    -8.781556427
 H      -10.086846333     4.160956452   -11.688782382
 H      -10.952519901     1.615276668    -9.072192245
 H      -11.117448652     0.005650913    -7.260010067
 H       -7.708089704    -2.131244862    -8.787621001
 H       -7.497031678    -0.538706275   -10.613165865
 H       -8.730895120    -2.945422530    -6.855395230
 H      -11.183060558    -1.383699703    -5.791230012
 H       -8.795056001    -4.333120327    -5.384395592
 H       -8.963669220    -5.943448525    -3.574980236
 H      -12.407285691    -3.780729490    -2.024571659
 H      -12.208648887    -2.199683145    -3.861639765
 H       -9.420893527    11.478164310    -8.447911107
 H       -7.727462871    11.100714130    -8.100064469
 H       -8.731810350     9.071718030    -7.475478111
 H       -8.668914792     9.876978244    -5.914779958
 H      -10.890136279     9.124964494    -5.883176468
 H      -11.140331696    10.754521193    -6.524873432
 H        2.263305849    -1.029513417    -0.042845565
 H        2.276102792     0.477690774     0.906475749
 H        2.259662503     0.545409468    -0.876721247
 H       -9.421707568    -7.978403749    -0.262485694
 H       -8.429715832    -6.673763625    -0.961210909
 H       -9.182599834    -7.892909586    -2.025650194
 H      -12.073114082    -4.645033263     0.207838206
 C      -11.302234217    -6.128017091     1.590845399
 C       -9.986822140    -4.223768971     0.628170830
 H      -12.371912227    -8.058557046    -0.700446167
 C      -13.707657232    -6.556425505    -1.522256127
 C      -12.279030052    -8.104763891    -2.870744056
 H      -10.021594962     2.069458351   -13.632914680
 C       -9.685948355    -0.061207772   -13.375628216
 C      -11.633135513     1.215840265   -12.451699297
 H       -6.973148952     1.022676749   -12.305468300
 C       -7.088124844     3.033986117   -13.113424519
 C       -6.319298176     2.449178878   -10.801923974
 H       -5.394427520    13.761761268     1.834691044
 C       -6.160050798    11.740814621     2.056824378
 C       -4.080997630    12.624994263     3.139326383
 H       -1.993849803    13.599915041     1.021500513
 C       -1.809558012    13.562363814    -1.144258177
 C       -3.197996673    15.187726671     0.160393274
 H       -1.777728410    -0.918688540    -1.440793243
 C       -0.300855733    -0.181585212    -2.849120884
 C       -0.179227139    -2.371284394    -1.635637973
 H       -0.150307313    -1.938239309     1.511229767
 C       -0.189142486    -0.231677991     2.855542593
 C       -2.153424926    -1.099747967     1.571889283
 H      -12.142628531    -6.828149600     1.499202272
 H      -11.513209601    -5.509364423     2.475379810
 H      -10.404761416    -6.712528269     1.832895342
 H       -9.831379856    -3.511200756    -0.194571172
 H       -9.022694188    -4.707506259     0.833260770
 H      -10.225286416    -3.620331648     1.515658223
 H      -13.892351773    -6.034686743    -0.574744978
 H      -14.542434209    -7.260750135    -1.651510088
 H      -13.799034054    -5.823011856    -2.335838705
 H      -11.389289573    -8.743949560    -2.937358363
 H      -12.289088440    -7.454894367    -3.757680679
 H      -13.145675633    -8.773957866    -2.970426359
 H       -8.654211608    -0.056301485   -13.749454896
 H      -10.319154910    -0.348819521   -14.227424803
 H       -9.772754481    -0.875711084   -12.642162962
 H      -12.048571799     2.167576740   -12.093127069
 H      -11.843502788     0.453522033   -11.687614830
 H      -12.223252761     0.935147258   -13.335459407
 H       -7.679884440     2.772993703   -13.999883013
 H       -6.037511696     3.041242374   -13.437898189
 H       -7.331434562     4.070383776   -12.840236204
 H       -6.343907991     1.754879051    -9.950447789
 H       -6.521059793     3.457137788   -10.411133438
 H       -5.280592485     2.459838311   -11.160760134
 H       -6.880482901    11.785537014     1.228808692
 H       -6.723571102    11.981364119     2.969380436
 H       -5.839014070    10.694309260     2.161653131
 H       -3.262908002    13.356533161     3.140658175
 H       -3.638493822    11.627926535     3.277217843
 H       -4.672500198    12.824587562     4.044570447
 H       -1.341927502    12.570783435    -1.218116127
 H       -0.988050324    14.292251494    -1.156086170
 H       -2.381069266    13.726149921    -2.069636201
 H       -3.756741170    15.423067986     1.075024543
 H       -3.842533853    15.425191177    -0.697597907
 H       -2.361119411    15.899987474     0.121136425
 H       -0.657319708     0.858162402    -2.876854743
 H       -0.771982294    -0.690280519    -3.702233110
 H        0.777485766    -0.166586763    -3.055454027
 H       -0.458466683    -2.977317961    -0.764124290
 H        0.906499681    -2.461579055    -1.772121343
 H       -0.639549070    -2.857966910    -2.507862007
 H        0.899440579    -0.133590010     2.954946029
 H       -0.524121757    -0.823512358     3.719450773
 H       -0.626986021     0.769188524     2.980554098
 H       -2.538033882    -1.667033648     0.714826318
 H       -2.698013010    -0.145820537     1.616518307
 H       -2.449302779    -1.662842548     2.468983149

