187   

Si        0.000000000     0.000000000     0.000000000
 C        1.865382172     0.000000000     0.000000000
 C       -0.678803398     1.711000755     0.000000000
 C        0.133781837     2.811297359     0.290974428
 C       -0.392910650     4.102864590     0.287645513
 C       -1.742601296     4.323502035     0.001622192
 C       -2.556517056     3.219435758    -0.285642304
 C       -2.033206215     1.929524887    -0.286485755
 C       -2.337409626     5.655755699    -0.013487091
 C       -1.670985408     6.794962641     0.239860594
 C       -2.267414075     8.126653949     0.224333623
 C       -1.454434848     9.232378909     0.507883348
 C       -1.979407268    10.522005175     0.504769848
 C       -3.335754926    10.734596031     0.228221677
 C       -4.149947112     9.632743801    -0.054053225
 C       -3.618492340     8.343607152    -0.059727179
Si       -4.040087767    12.433940703     0.221385414
 C       -5.852833027    12.351231507     0.438592440
 C       -6.764971831    12.967551707    -0.324251374
 C       -8.210468279    12.872300033    -0.112211543
 C       -9.070529174    13.563868750    -0.977892394
 C      -10.445265655    13.506637551    -0.820450098
 C      -11.015793073    12.705902344     0.193418463
 C      -10.153917813    12.010378765     1.061723613
 C       -8.776052264    12.115453744     0.916828413
 N      -12.412966542    12.662118438     0.335873844
 C      -13.222248966    12.722683264    -0.894851213
 C      -12.954934087    11.772206338     1.372656879
 C      -12.870897597    11.678286596    -1.968047313
 C      -13.412405921    10.268566523    -1.676907318
 N      -14.831571763    10.058256748    -2.011210093
 C      -15.236249230    10.310933878    -3.331352693
 C      -14.335834882    10.090563555    -4.396974580
 C      -14.722605336    10.335938566    -5.704122373
 C      -16.023294443    10.761588707    -6.009862675
 C      -16.922158177    10.949784285    -4.956731182
 C      -16.547031971    10.723954252    -3.638589506
 C      -15.766276740    10.427215654    -0.938401598
 C      -16.379144949    11.006503189    -7.408614102
 C      -17.588855368    11.414230750    -7.814282290
Si      -18.088605564    11.735119615    -9.542544396
 C      -19.663709827    10.856938482    -9.905293483
 C      -20.037771853     9.741123303    -9.146298405
 C      -21.229124428     9.072687311    -9.416746018
 C      -22.067588611     9.493457998   -10.457274066
 C      -21.687033709    10.603102728   -11.217578400
 C      -20.497502778    11.277968942   -10.946650427
 C      -23.305318156     8.760219844   -10.701253426
 C      -24.197134979     9.061108492   -11.660410470
 C      -25.434731026     8.327574976   -11.904009771
 C      -25.815789953     7.218406919   -11.144537189
 C      -27.008331534     6.546287449   -11.412059253
 C      -27.850286629     6.974181908   -12.443182247
 C      -27.470822307     8.086980988   -13.206088958
 C      -26.277278350     8.752302113   -12.940277667
Si      -29.427460418     6.098454249   -12.809281807
 C      -29.885762967     4.910163987   -11.446176649
 C      -30.796275911     7.402259570   -13.032452762
 C      -29.250514126     5.124035599   -14.434705374
 C      -18.337636495    13.609027417    -9.761416918
 C      -16.758687111    11.150285712   -10.769268203
 C       -3.302943532    13.432235649     1.664073815
 C       -3.578237256    13.290375482    -1.412427351
 C       -0.655492716    -0.903161750    -1.542195041
 C       -0.613227285    -0.923716245     1.547043969
 H        1.196632333     2.701582598     0.523545848
 H        0.262241476     4.942604488     0.512233487
 H       -3.610581168     3.369210708    -0.511727889
 H       -2.716321909     1.108051950    -0.520245544
 H       -3.404513628     5.677414183    -0.253721060
 H       -0.603947260     6.774172248     0.480002983
 H       -0.399785684     9.084558318     0.731805079
 H       -1.297202277    11.346550561     0.728987021
 H       -5.215973757     9.741233268    -0.279498246
 H       -4.270824263     7.502328589    -0.286311165
 H       -6.157845869    11.731770138     1.298763045
 H       -6.495389240    13.597888926    -1.181794515
 H       -8.652526826    14.169171156    -1.783199543
 H      -11.083269476    14.083760453    -1.484002922
 H      -10.548634894    11.387650651     1.857428252
 H       -8.130451234    11.578353623     1.614074939
 H      -14.054877116    11.845536984     1.396207222
 H      -12.592944334    12.112774696     2.361632903
 H      -12.675897418    10.713731453     1.242492384
 H      -15.330197888    10.187176654     0.045318603
 H      -16.684116272     9.816589800    -1.036359909
 H      -16.050494981    11.492397162    -0.946289310
 H      -13.330642303     9.729534373    -4.198683666
 H      -14.003511361    10.179573268    -6.509238490
 H      -17.941909786    11.278610470    -5.165432683
 H      -17.278919253    10.882626587    -2.853855911
 H      -15.550832987    10.818442814    -8.104308221
 H      -18.398226054    11.600509760    -7.088604429
 H      -19.418897338     9.364613526    -8.324990543
 H      -21.507599520     8.211047204    -8.812802096
 H      -22.320201303    10.950099428   -12.031797682
 H      -20.253025165    12.139377419   -11.574098577
 H      -23.474777303     7.913141703   -10.029955787
 H      -24.027542422     9.907681639   -12.332193942
 H      -25.180122274     6.867008734   -10.333798872
 H      -27.251984508     5.684522114   -10.784503517
 H      -28.089277790     8.467121306   -14.024082517
 H      -25.998713813     9.613331331   -13.544861929
 H      -14.297108890    12.648785002    -0.620448406
 H      -13.098324584    13.748029169    -1.321171223
 H      -13.250421921    12.027922719    -2.950489480
 H      -11.769010315    11.624353878    -2.088584717
 H      -12.819608013     9.515493227    -2.251342954
 H      -13.255292068    10.004824176    -0.607978367
 H        2.262998803    -1.030088113    -0.034253830
 H        2.275488348     0.484625759     0.903270384
 H        2.260978377     0.537717360    -0.880863212
 H      -30.854060039     4.420901333   -11.654296274
 H      -29.980784717     5.435019194   -10.478246197
 H      -29.130376513     4.114038810   -11.325635885
 H      -30.468473161     8.049722989   -13.897226696
 C      -32.166753818     6.799431392   -13.388656407
 C      -30.952516606     8.309428097   -11.798489449
 H      -30.227477348     4.575170829   -14.567851163
 C      -29.034689404     6.016653493   -15.669948683
 C      -28.120547836     4.079744638   -14.377315530
 H      -18.614166087    13.762151755   -10.844607121
 C      -19.486902506    14.156179633    -8.896111672
 C      -17.062830792    14.422563670    -9.476552579
 H      -15.797396236    11.644065309   -10.444336235
 C      -16.553557856     9.624837459   -10.729835206
 C      -17.042138406    11.572742472   -12.222069734
 H       -2.192193776    13.482612193     1.472137162
 C       -3.840022212    14.872344143     1.735393962
 C       -3.518918089    12.746980281     3.025186284
 H       -4.112451459    14.284408049    -1.403365742
 C       -2.069909715    13.563178139    -1.553316080
 C       -4.054028829    12.499554247    -2.644805220
 H       -1.780315264    -0.903339917    -1.445947546
 C       -0.295376556    -0.174091779    -2.849353814
 C       -0.191550153    -2.367340224    -1.640194796
 H       -0.119825101    -1.938005624     1.512054024
 C       -0.188821807    -0.231220540     2.855153588
 C       -2.137328408    -1.137040438     1.574228792
 H      -32.151379208     6.196190161   -14.305544709
 H      -32.896434344     7.603721090   -13.562648516
 H      -32.583013798     6.176916702   -12.585613992
 H      -30.021492305     8.821317224   -11.515563827
 H      -31.316114947     7.771199065   -10.913193113
 H      -31.687752624     9.100711737   -12.003052676
 H      -29.848961266     6.732854789   -15.837461801
 H      -28.981593924     5.396060159   -16.576443035
 H      -28.091497712     6.579629652   -15.630427228
 H      -28.244628647     3.345972403   -13.570584916
 H      -27.125238901     4.533328516   -14.264471284
 H      -28.091614005     3.504259979   -15.313701121
 H      -20.445584943    13.648466399    -9.073176901
 H      -19.656237689    15.218407923    -9.122797577
 H      -19.275720158    14.100771725    -7.819438482
 H      -16.218732968    14.149272233   -10.122676540
 H      -16.724771376    14.337433742    -8.433865329
 H      -17.251248339    15.491275123    -9.652351742
 H      -16.302239692     9.239985365    -9.732038806
 H      -15.722990832     9.338231989   -11.390012486
 H      -17.433547689     9.068091169   -11.083419636
 H      -17.094769726    12.660415087   -12.357282833
 H      -17.969383470    11.138163692   -12.621538877
 H      -16.233509623    11.221585710   -12.879599666
 H       -3.644266097    15.455722210     0.826526535
 H       -3.354778155    15.414762194     2.559442445
 H       -4.920844787    14.916836407     1.932640171
 H       -3.123287213    11.722278533     3.064980351
 H       -4.576177303    12.706646466     3.321151773
 H       -2.998890240    13.307175688     3.815360080
 H       -1.669619008    14.214872665    -0.766321403
 H       -1.868584171    14.074833319    -2.505850732
 H       -1.467821120    12.643729820    -1.568789378
 H       -5.133626817    12.296817353    -2.647927110
 H       -3.539398955    11.533971983    -2.755330857
 H       -3.843291831    13.066956686    -3.562159273
 H       -0.646303128     0.867532839    -2.876004614
 H       -0.766972426    -0.678566843    -3.704704309
 H        0.783610038    -0.164742972    -3.052752196
 H       -0.477272374    -2.973405215    -0.770810942
 H        0.893967741    -2.464791573    -1.773825929
 H       -0.652649648    -2.848815629    -2.514907091
 H        0.897856094    -0.112880009     2.954036164
 H       -0.512436615    -0.828671934     3.719550083
 H       -0.644486092     0.761668278     2.979816278
 H       -2.513305708    -1.705206859     0.714071926
 H       -2.699497074    -0.194109389     1.628392619
 H       -2.419546118    -1.712438582     2.468058186

