187   

Si        0.000000000     0.000000000     0.000000000
 C        1.865113034     0.000000000     0.000000000
 C       -0.677402970     1.711825197     0.000000000
 C        0.100401804     2.791461240    -0.430870389
 C       -0.418944252     4.085882184    -0.428325232
 C       -1.727121030     4.329967166    -0.002179978
 C       -2.507209038     3.246390350     0.423283888
 C       -1.991596903     1.953262626     0.422177143
 C       -2.313027139     5.666050581     0.017978242
 C       -1.677518837     6.787670807    -0.361614752
 C       -2.266956457     8.122370283    -0.340021861
 C       -1.491986882     9.209520136    -0.763869383
 C       -2.013183375    10.501401181    -0.760319967
 C       -3.319181268    10.738229097    -0.316709017
 C       -4.094765139     9.653315805     0.109850184
 C       -3.574822187     8.360454373     0.092764141
Si       -4.045285072    12.428470279    -0.295892895
 C       -5.149424973    12.665254482     1.142431387
 C       -4.989962007    12.041517291     2.317628937
 C       -5.868500119    12.225068822     3.473451545
 C       -5.596274861    11.513788865     4.650387224
 C       -6.396452651    11.651072974     5.773245839
 C       -7.543346136    12.473015390     5.739393340
 C       -7.818805896    13.184501025     4.555520816
 C       -6.978421357    13.074059394     3.455442468
 N       -8.355117939    12.611564577     6.880424581
 C       -8.375989284    11.489284784     7.834907930
 C       -9.687057969    13.208346184     6.679104573
 C       -8.970073465    10.201686061     7.241510882
 C       -8.808565275     9.031271088     8.224814963
 N       -9.444866093     7.788537407     7.754763332
 C      -10.844811734     7.790562407     7.618386729
 C      -11.640154427     8.638095565     8.419110220
 C      -13.019491185     8.640874850     8.285554819
 C      -13.665068984     7.772831100     7.394528781
 C      -12.878455403     6.910827971     6.625011303
 C      -11.494317356     6.907560092     6.733643012
 C       -8.674687043     7.125309968     6.688072145
 C      -15.124773544     7.817372255     7.292837972
 C      -15.844303535     7.035970631     6.477082586
Si      -17.664058047     7.049241409     6.310036416
 C      -18.315043961     5.334323087     6.447467033
 C      -17.547540986     4.332813311     7.054559493
 C      -18.039734657     3.034201001     7.158977745
 C      -19.311680579     2.707843551     6.671012520
 C      -20.077602216     3.711871862     6.071349959
 C      -19.586442569     5.011890004     5.960714248
 C      -19.783003893     1.333236331     6.803786022
 C      -20.976532973     0.888524397     6.375361156
 C      -21.447671074    -0.486081158     6.508218103
 C      -20.683387779    -1.490716374     7.107291677
 C      -21.173243453    -2.792356721     7.213297612
 C      -22.438693705    -3.118881394     6.716055809
 C      -23.207165854    -2.113232713     6.114055649
 C      -22.717500780    -0.813965281     6.014154117
Si      -23.100504052    -4.831580329     6.847626150
 C      -21.775419878    -6.043288574     7.353305474
 C      -24.495054248    -4.877241141     8.142483030
 C      -23.827566840    -5.319214432     5.157317806
 C      -18.472313587     8.131658626     7.648432398
 C      -18.108461131     7.757057477     4.600257910
 C       -2.670585365    13.742273768    -0.240658296
 C       -5.063040992    12.678368097    -1.883380300
 C       -0.624173969    -0.913552779    -1.548601775
 C       -0.649577727    -0.916025440     1.537587185
 H        1.130422301     2.662989480    -0.774941553
 H        0.208322055     4.909380850    -0.764750367
 H       -3.529185355     3.414251906     0.757714593
 H       -2.648132233     1.148078935     0.763546222
 H       -3.346482541     5.706220426     0.374804565
 H       -0.644690066     6.748570582    -0.719632714
 H       -0.471431666     9.045967523    -1.104317345
 H       -1.363989255    11.308533159    -1.110174596
 H       -5.122783585     9.779851959     0.466764007
 H       -4.199296656     7.533194416     0.424728235
 H       -5.965156265    13.385968972     0.983217252
 H       -4.177585218    11.323845548     2.502824121
 H       -4.732015352    10.849009851     4.690836660
 H       -6.132973698    11.111356796     6.677927561
 H       -8.683923618    13.836253276     4.488605005
 H       -7.206007840    13.650655059     2.557552074
 H      -10.246539241    13.218510244     7.629397450
 H      -10.294444478    12.678986281     5.926450513
 H       -9.567964993    14.262098011     6.367989410
 H       -7.593223665     7.237952923     6.873132577
 H       -8.894976686     7.516996478     5.681175673
 H       -8.890276270     6.041543133     6.706974329
 H      -11.178516214     9.303396877     9.142589028
 H      -13.610611165     9.322491254     8.898153116
 H      -13.354090664     6.222329218     5.924093991
 H      -10.923448641     6.218807140     6.118993120
 H      -15.581341159     8.559330324     7.960904235
 H      -15.353354556     6.305020385     5.812757652
 H      -16.549472253     4.531928672     7.458834210
 H      -17.427521286     2.266627379     7.628831160
 H      -21.068994976     3.484528090     5.684378218
 H      -20.229882457     5.754174281     5.480578094
 H      -19.079230941     0.653777517     7.293705162
 H      -21.680425415     1.567682980     5.885566162
 H      -19.693658247    -1.263494306     7.499368977
 H      -20.529485365    -3.534967265     7.692818628
 H      -24.202877054    -2.310083625     5.706716144
 H      -23.329648390    -0.046389573     5.544548670
 H       -7.336947464    11.315422138     8.197494542
 H       -8.954233894    11.806195646     8.732634173
 H      -10.039101640    10.350533736     6.994750366
 H       -8.479068228     9.961882275     6.278065522
 H       -7.729435983     8.821920616     8.406366637
 H       -9.232353851     9.291137508     9.221676105
 H        2.263002745    -1.028886858     0.058576919
 H        2.259807926     0.558818051     0.868183261
 H        2.276284593     0.463719662    -0.913594437
 H      -22.171551387    -7.073805471     7.390446805
 H      -21.365565504    -5.808574883     8.351316697
 H      -20.936817247    -6.036395680     6.633505155
 H      -24.808323593    -5.958946462     8.213632728
 C      -24.020796659    -4.424575199     9.535694341
 C      -25.731505409    -4.048942797     7.750003332
 H      -24.646169790    -4.571160355     4.945757280
 C      -22.794274172    -5.219862151     4.020548629
 C      -24.457245379    -6.723407772     5.141499864
 H      -17.964603320     9.137271284     7.581902270
 C      -19.981142579     8.346181066     7.432607367
 C      -18.251216075     7.573725065     9.066348472
 H      -19.235747677     7.773523270     4.553937208
 C      -17.601969178     9.195330441     4.393947289
 C      -17.599079454     6.874503990     3.446850683
 H       -2.038545045    13.572604666    -1.159719600
 C       -3.206733354    15.184065130    -0.293564387
 C       -1.767954236    13.591874641     0.997177229
 H       -5.474322429    13.727459974    -1.827902118
 C       -4.220629018    12.561845056    -3.165541414
 C       -6.251153355    11.704087089    -1.975271636
 H       -0.146798751    -1.935274425    -1.515703007
 C       -2.151828562    -1.100973060    -1.571782502
 C       -0.191082804    -0.225911249    -2.856250507
 H       -1.774235232    -0.925956093     1.440916328
 C       -0.173423617    -2.376854740     1.628021063
 C       -0.295621308    -0.191497378     2.848979012
 H      -23.190278941    -5.023998929     9.930216503
 H      -24.840584047    -4.520215440    10.262089307
 H      -23.710520698    -3.369932573     9.559506841
 H      -26.180088471    -4.358491166     6.797677922
 H      -25.521446067    -2.971701378     7.690656434
 H      -26.517568376    -4.165202348     8.510446403
 H      -22.337311456    -4.223459269     3.935268756
 H      -23.277222019    -5.419426476     3.053377508
 H      -21.979801992    -5.950112208     4.115773093
 H      -25.259454330    -6.848550315     5.880202803
 H      -23.723755678    -7.523959178     5.305300582
 H      -24.911184877    -6.919741800     4.159199776
 H      -20.220347513     8.833746353     6.479096762
 H      -20.383664859     9.000139382     8.219902254
 H      -20.558454075     7.412472802     7.488112357
 H      -17.192893924     7.425969408     9.321451167
 H      -18.764119777     6.614888506     9.230734365
 H      -18.655233408     8.270684606     9.813848588
 H      -17.996140418     9.905778993     5.131828226
 H      -17.917610162     9.567940973     3.409003639
 H      -16.505161400     9.269544872     4.413502550
 H      -17.953687891     5.835606441     3.503883432
 H      -16.502811842     6.848096046     3.379892060
 H      -17.957192767     7.267906430     2.484883090
 H       -3.796662892    15.397303841    -1.193949565
 H       -2.368678274    15.896026511    -0.301126793
 H       -3.821011974    15.443838989     0.580029810
 H       -1.300888223    12.600937087     1.081197613
 H       -2.301419371    13.784939839     1.939516369
 H       -0.944285228    14.318241060     0.954797474
 H       -3.402386259    13.291365419    -3.217658967
 H       -4.850962263    12.744515896    -4.047891178
 H       -3.785954827    11.561274947    -3.302710307
 H       -6.934600747    11.766746893    -1.117490661
 H       -5.936481772    10.655086337    -2.073596448
 H       -6.854022450    11.927762329    -2.866789168
 H       -2.533054380    -1.676188697    -0.718579041
 H       -2.448289702    -1.657483830    -2.472870392
 H       -2.698907657    -0.148137014    -1.607590569
 H        0.897156047    -0.125297261    -2.956990198
 H       -0.631381188     0.774190592    -2.978723688
 H       -0.525797794    -0.816638416    -3.721078409
 H       -0.450904718    -2.979782480     0.753763340
 H       -0.633425497    -2.868084679     2.497860333
 H        0.912449717    -2.465858297     1.764811230
 H       -0.652702682     0.847770932     2.881070221
 H        0.783304022    -0.176213932     3.053004550
 H       -0.764135431    -0.703883615     3.701286301

