187   

Si        0.000000000     0.000000000     0.000000000
 C        1.865129828     0.000000000     0.000000000
 C       -0.675975122     1.712488375     0.000000000
 C        0.123611609     2.801313967     0.362277694
 C       -0.396424314     4.095374242     0.359558348
 C       -1.726438564     4.329905692     0.001154014
 C       -2.527749692     3.237644672    -0.356922690
 C       -2.011247088     1.944865927    -0.356211269
 C       -2.312542044     5.665960139    -0.015900829
 C       -1.654508935     6.793285854     0.303525101
 C       -2.240971214     8.128775951     0.286301841
 C       -3.571441208     8.361185354    -0.072477017
 C       -4.092472278     9.654590380    -0.075559473
 C       -3.287387785    10.744434113     0.269098954
 C       -1.953109612    10.515876490     0.630581702
 C       -1.440106086     9.221650482     0.645225699
Si       -3.941991532    12.461645735     0.275376360
 C       -2.653543433    13.569031389    -0.404071347
 C       -2.230835845    14.701888347     0.170888282
 C       -1.196942803    15.577474252    -0.387818536
 C       -0.849985805    16.736974345     0.322212115
 C        0.121030973    17.601114374    -0.159175720
 C        0.790372889    17.303670668    -1.358204300
 C        0.478664690    16.130694122    -2.052495801
 C       -0.491111592    15.265950064    -1.552864073
 N        1.778105678    18.254698768    -1.777956822
 C        1.166707700    19.416576233    -2.465617512
 C        2.905993827    17.669619642    -2.524389233
 C        0.654927310    19.132502512    -3.891219045
 C       -0.722234327    19.754331340    -4.192065257
 N       -1.894338374    18.964323140    -3.759186380
 C       -1.912820338    17.606400180    -4.135887466
 C       -1.333472107    17.205280088    -5.359026894
 C       -1.346407042    15.872671986    -5.738596604
 C       -1.966460570    14.897892355    -4.945487518
 C       -2.582727957    15.304591199    -3.759030685
 C       -2.585585884    16.636850859    -3.368408842
 C       -2.311480109    19.259837865    -2.376811450
 C       -1.950347216    13.505279657    -5.394110062
 C       -2.509755294    12.492797569    -4.718731840
Si       -2.497273963    10.748070913    -5.267272089
 C       -0.996647251    10.373298975    -6.262387724
 C        0.214721075    10.995637592    -5.935339678
 C        1.367832615    10.731088639    -6.671366990
 C        1.341662600     9.831021532    -7.740876815
 C        0.130910535     9.203933648    -8.061031076
 C       -1.025122454     9.469842260    -7.330324698
 C        2.524272091     9.523931607    -8.538618474
 C        3.741907690    10.055448377    -8.336354915
 C        4.925372853     9.749513110    -9.133011176
 C        4.902042394     8.854368313   -10.205510406
 C        6.057952868     8.591261620   -10.940502363
 C        7.263263923     9.224477203   -10.621562102
 C        7.289373265    10.123361758    -9.546487987
 C        6.135385224    10.379368502    -8.811326641
Si        8.797187123     8.888012278   -11.581746340
 C        8.426664939     7.991328472   -13.175003533
 C        9.651068553    10.549926125   -11.946411392
 C        9.975552020     7.818797284   -10.536826335
 C       -2.446748139     9.685292404    -3.687708589
 C       -4.080311786    10.357933287    -6.239671285
 C       -5.534184945    12.634924793    -0.748950162
 C       -4.367807557    12.927715209     2.071641188
 C       -0.651646271    -0.905971957    -1.542453251
 C       -0.621771812    -0.919228955     1.546035276
 H        1.171547637     2.680471989     0.650781772
 H        0.248431100     4.926095163     0.641107522
 H       -3.566432416     3.398215885    -0.639332588
 H       -2.683835447     1.132331335    -0.644763596
 H       -3.363977185     5.700211043    -0.315662402
 H       -0.602815571     6.758540551     0.603127899
 H       -4.214852203     7.529530403    -0.353037980
 H       -5.141538177     9.773433617    -0.359727559
 H       -1.278197212    11.333420926     0.906139997
 H       -0.403199518     9.059837150     0.934465602
 H       -2.227465216    13.219248924    -1.360549829
 H       -2.637913826    15.074357155     1.120211506
 H       -1.355459794    16.970101382     1.258783789
 H        0.390591210    18.499894852     0.392740582
 H        0.988082891    15.883523488    -2.980647812
 H       -0.708581560    14.345029819    -2.099314567
 H        3.694824744    18.435933704    -2.618441358
 H        2.657663560    17.302392567    -3.531503506
 H        3.327166193    16.831934596    -1.940995420
 H       -2.219895826    20.338515164    -2.173695877
 H       -1.731316145    18.708393787    -1.615337988
 H       -3.380598010    19.002925710    -2.262371439
 H       -0.874106144    17.939986949    -6.013306005
 H       -0.874810290    15.583749964    -6.678769976
 H       -3.092598692    14.573209469    -3.127892451
 H       -3.084689133    16.907210382    -2.442355607
 H       -1.426581902    13.364395575    -6.349702937
 H       -3.031978784    12.663881064    -3.764107280
 H        0.296425824    11.705824396    -5.104507363
 H        2.295823932    11.231817652    -6.402157678
 H        0.089259452     8.499230033    -8.889109209
 H       -1.940159458     8.950194308    -7.626279614
 H        2.357790104     8.804949518    -9.346015640
 H        3.907998032    10.773628974    -7.528076832
 H        3.975654006     8.351403671   -10.476782689
 H        5.977609293     7.880454788   -11.767504633
 H        8.202558235    10.647860609    -9.251447896
 H        6.175762357    11.078806073    -7.978525172
 H        0.343106760    19.795626038    -1.821195538
 H        1.936178771    20.220272889    -2.486987978
 H        1.388937314    19.501191348    -4.630754100
 H        0.606243557    18.035593649    -4.056927465
 H       -0.792024117    20.770807322    -3.747029410
 H       -0.827017066    19.905443276    -5.294020081
 H        2.263071324    -1.029402217    -0.048365892
 H        2.276134440     0.472677864     0.909132735
 H        2.259956523     0.549884271    -0.873910190
 H        9.346065228     7.835388458   -13.767114429
 H        7.723420712     8.570279243   -13.800833365
 H        7.977164086     6.999704799   -12.991789668
 H        9.885113063    11.004828640   -10.940083619
 C       10.975411053    10.404125586   -12.716783225
 C        8.735378867    11.528644574   -12.703697951
 H       10.863382573     7.606317550   -11.199873257
 C       10.486626276     8.524157663    -9.267785652
 C        9.347670815     6.472109608   -10.133194009
 H       -3.340826812     9.995164598    -3.071314983
 C       -2.554302102     8.174680739    -3.951164687
 C       -1.180974228     9.958918283    -2.856603829
 H       -4.005163931     9.270423039    -6.532089369
 C       -5.367372092    10.535392111    -5.413884996
 C       -4.195139064    11.193299888    -7.527570754
 H       -6.287264091    11.955614658    -0.253168043
 C       -6.098825892    14.067675907    -0.726960114
 C       -5.386398241    12.190298627    -2.212761432
 H       -4.667609489    14.015087358     2.049146283
 C       -5.548385482    12.120382787     2.639994680
 C       -3.167951351    12.781029600     3.024807610
 H       -1.776443093    -0.910674841    -1.447132506
 C       -0.292864856    -0.176104503    -2.849492256
 C       -0.182099765    -2.368432809    -1.639556465
 H       -0.138942890    -1.938414275     1.511321685
 C       -0.192496857    -0.231597553     2.855041841
 C       -2.148300163    -1.115568215     1.569578315
 H       11.710294146     9.771332654   -12.202574320
 H       11.449461931    11.389088098   -12.837659031
 H       10.839539823    10.003219661   -13.729949768
 H        7.786071395    11.724588617   -12.184700142
 H        8.492655806    11.190510967   -13.719797451
 H        9.232531307    12.503057848   -12.812392826
 H       11.022830174     9.458999477    -9.474125542
 H       11.197883002     7.873834885    -8.737857314
 H        9.683514066     8.746097953    -8.550801521
 H        9.030063973     5.864275464   -10.990079323
 H        8.479985871     6.587907643    -9.467654141
 H       10.079652696     5.865344308    -9.581060605
 H       -3.479575754     7.884838115    -4.463103632
 H       -2.545860693     7.628699915    -2.994697295
 H       -1.709694451     7.778938712    -4.532138392
 H       -1.063661561    11.012814417    -2.570239886
 H       -0.258562450     9.639309320    -3.359653564
 H       -1.227585257     9.391867696    -1.912849650
 H       -5.397830869     9.902823334    -4.517107637
 H       -6.242167595    10.254227906    -6.017159956
 H       -5.532677000    11.575750333    -5.100442674
 H       -3.336660768    11.076236718    -8.203184808
 H       -4.313274801    12.268578692    -7.328996549
 H       -5.081010779    10.886337736    -8.100543495
 H       -6.336688128    14.429220999     0.281129029
 H       -7.039759563    14.109626705    -1.294299962
 H       -5.426011262    14.801502287    -1.194414670
 H       -4.971627279    11.179325292    -2.325903160
 H       -4.764263361    12.878987781    -2.803040938
 H       -6.370352266    12.173760242    -2.703369592
 H       -6.482205097    12.259287598     2.080662116
 H       -5.760289670    12.439178653     3.671143588
 H       -5.345269928    11.041166618     2.690956209
 H       -2.284736840    13.355187504     2.713799493
 H       -2.853235608    11.735082589     3.153457737
 H       -3.435530819    13.145577830     4.026709687
 H       -0.646011827     0.864790708    -2.876611553
 H       -0.762303798    -0.681771540    -3.705250954
 H        0.786366293    -0.163863737    -3.052177430
 H       -0.466365123    -2.975251346    -0.770221288
 H        0.903946088    -2.461834125    -1.772171909
 H       -0.640428052    -2.852086087    -2.514486282
 H        0.895170488    -0.124041779     2.955494304
 H       -0.523051086    -0.826307620     3.718720469
 H       -0.638838461     0.765508722     2.979741453
 H       -2.528465154    -1.680277231     0.708952030
 H       -2.700090193    -0.166268710     1.620743115
 H       -2.439552144    -1.686875043     2.463074277

