187   

Si        0.000000000     0.000000000     0.000000000
 C        1.865117857     0.000000000     0.000000000
 C       -0.670168185     1.714369973     0.000000000
 C        0.123745758     2.794261315    -0.399744589
 C       -0.389395490     4.091012230    -0.397698144
 C       -1.705987446     4.336675600    -0.000288390
 C       -2.501909766     3.253201280     0.395093034
 C       -1.993030436     1.957653305     0.392670908
 C       -2.285602962     5.674140805     0.018220201
 C       -1.640592747     6.799147626    -0.334963142
 C       -2.241764335     8.128164695    -0.308360896
 C       -3.563962282     8.334315001     0.095902701
 C       -4.109909166     9.614553245     0.110731906
 C       -3.343551159    10.720148425    -0.280715585
 C       -2.019483458    10.518496071    -0.682202161
 C       -1.475107287     9.235203979    -0.691051507
Si       -4.127280723    12.378145209    -0.236464884
 C       -3.290150589    13.683430603    -1.198713173
 C       -2.567638282    13.519044184    -2.315015044
 C       -1.927213596    14.628834155    -3.026536383
 C       -1.186690468    14.370902383    -4.190468106
 C       -0.567758132    15.395894192    -4.888639049
 C       -0.784818870    16.739376905    -4.514896103
 C       -1.553594957    17.002488418    -3.367811138
 C       -2.084491950    15.956448440    -2.623903162
 N       -0.146352923    17.770683948    -5.237071883
 C       -0.186097654    17.682095963    -6.713714841
 C       -0.374118404    19.145072758    -4.754527901
 C       -1.445444899    17.078605517    -7.361098122
 C       -2.781196158    17.670611911    -6.870953489
 N       -3.975282228    16.902035649    -7.317456009
 C       -3.834899215    15.516734175    -6.966976364
 C       -4.120716540    15.171829315    -5.636847320
 C       -4.006136598    13.851401031    -5.228274908
 C       -3.649451601    12.840957885    -6.132882511
 C       -3.392088620    13.192551502    -7.460296827
 C       -3.486172851    14.514963170    -7.880911847
 C       -4.301524199    17.145098326    -8.734799335
 C       -3.541779601    11.460161959    -5.650667824
 C       -3.207839988    10.429604465    -6.438228839
Si       -3.051149883     8.684795788    -5.922256214
 C       -4.133033510     8.164470787    -4.534901660
 C       -5.350774096     8.793813587    -4.258934713
 C       -6.139067059     8.362570226    -3.192919223
 C       -5.734783234     7.289791303    -2.389763018
 C       -4.521076309     6.657364178    -2.674813361
 C       -3.729982724     7.086187367    -3.736755541
 C       -6.585596892     6.866156184    -1.282818173
 C       -6.290044428     5.851793468    -0.452024422
 C       -7.123045460     5.410173095     0.659843692
 C       -8.341449247     6.015139151     0.977290829
 C       -9.105215316     5.558123437     2.051259648
 C       -8.666485738     4.481933688     2.828934823
 C       -7.444196335     3.873640029     2.512301216
 C       -6.682550304     4.334276286     1.442543768
Si       -9.660767141     3.865315625     4.249615611
 C      -11.389871614     4.564715074     4.234928884
 C       -9.718034144     1.964814296     4.158232648
 C       -8.809252796     4.368443768     5.876277645
 C       -3.430009582     7.585905322    -7.427101777
 C       -1.233756607     8.433209523    -5.403706493
 C       -5.902527138    12.230724648    -0.914204569
 C       -4.205100224    12.962838949     1.573032663
 C       -0.627852633    -0.910174712    -1.549150254
 C       -0.654762621    -0.910761971     1.538165393
 H        1.161427946     2.663737558    -0.718752887
 H        0.249854063     4.914513135    -0.710442196
 H       -3.530165993     3.422746402     0.709523142
 H       -2.660533963     1.151408929     0.709401616
 H       -3.322163825     5.716443509     0.368876655
 H       -0.602654838     6.768136887    -0.675748038
 H       -4.187065588     7.491674191     0.396375310
 H       -5.152044611     9.706659737     0.432527828
 H       -1.376276261    11.347993932    -0.991706245
 H       -0.440555025     9.095817332    -0.998404249
 H       -3.443918402    14.689798312    -0.773561572
 H       -2.389702854    12.538448610    -2.776432449
 H       -1.067613018    13.342239358    -4.537252754
 H        0.068007330    15.166276659    -5.739023697
 H       -1.744883365    18.019913778    -3.043704299
 H       -2.653072378    16.190800949    -1.722822916
 H        0.286919236    19.837965632    -5.303049812
 H       -0.081423313    19.212576403    -3.691046898
 H       -1.413787680    19.491117839    -4.864365515
 H       -4.610346927    18.199777863    -8.840400338
 H       -5.166889486    16.522175900    -9.020552029
 H       -3.479986245    16.950877978    -9.439291193
 H       -4.415484292    15.947650134    -4.931555924
 H       -4.220367851    13.598852804    -4.186569741
 H       -3.113394404    12.427927079    -8.184873018
 H       -3.277471765    14.762924980    -8.917049412
 H       -3.771592453    11.347111243    -4.581975346
 H       -2.977189489    10.587073561    -7.505126645
 H       -5.715642528     9.633666989    -4.858300406
 H       -7.082810108     8.864563860    -2.988265616
 H       -4.176758619     5.822235276    -2.065048973
 H       -2.790288443     6.550531075    -3.904326752
 H       -7.506129492     7.442576780    -1.160330471
 H       -5.371322862     5.271991950    -0.589320099
 H       -8.706731867     6.852243019     0.385440026
 H      -10.050344286     6.070109560     2.251617941
 H       -7.052249585     3.028398513     3.085312208
 H       -5.736197761     3.848158993     1.212279612
 H       -0.001354755    18.691873411    -7.142331749
 H        0.694880749    17.058572791    -7.008505029
 H       -1.368044477    17.192682700    -8.458508040
 H       -1.449125961    15.981398693    -7.180596587
 H       -2.811212493    17.680895081    -5.756115991
 H       -2.892513003    18.722354269    -7.202341476
 H        2.263830642    -1.028259484     0.064082122
 H        2.259272363     0.563688014     0.865335350
 H        2.275569337     0.459056579    -0.916261551
 H      -11.992457744     4.154541050     5.065017839
 H      -11.910156711     4.314617314     3.292506947
 H      -11.387422381     5.664027794     4.337476674
 H       -8.645093096     1.619910725     4.222917823
 C      -10.491792271     1.316948468     5.320096150
 C      -10.295851247     1.456336686     2.825061876
 H       -9.494861856     4.017641447     6.700843380
 C       -7.435617063     3.706060869     6.084493556
 C       -8.645256135     5.893859028     6.007274478
 H       -2.713056181     7.903865776    -8.237549828
 C       -3.207281394     6.088322650    -7.153966412
 C       -4.863519268     7.792519810    -7.948496291
 H       -1.120044657     7.335012848    -5.173822427
 C       -0.228682890     8.791625720    -6.512280352
 C       -0.887108733     9.230159336    -4.134132158
 H       -6.426938147    11.481572241    -0.254099058
 C       -6.689759128    13.551391225    -0.854912537
 C       -5.927242405    11.698852555    -2.356793847
 H       -4.716517601    13.967882295     1.554558396
 C       -5.022823547    12.029914683     2.482650804
 C       -2.803190335    13.150331815     2.180316387
 H       -0.153070677    -1.933129494    -1.518917741
 C       -2.156052706    -1.093274791    -1.571969745
 C       -0.194437439    -0.220864440    -2.855994884
 H       -1.779058327    -0.920676246     1.436907648
 C       -0.179052620    -2.371274457     1.635459642
 C       -0.306076639    -0.181546479     2.848327520
 H      -10.091719697     1.578485169     6.308303400
 H      -10.432963332     0.221297747     5.245156385
 H      -11.560947143     1.567360633     5.315043920
 H       -9.757158194     1.836349311     1.945234262
 H      -11.357620051     1.704495836     2.694945026
 H      -10.226305592     0.360223748     2.777541783
 H       -7.475323532     2.609525579     6.085056832
 H       -7.022926924     3.997758747     7.061511016
 H       -6.693867735     4.017412796     5.335380426
 H       -9.595204697     6.441129940     5.955206738
 H       -7.974495889     6.318255436     5.246313636
 H       -8.200547101     6.142581818     6.981694302
 H       -2.177381276     5.846602468    -6.861801568
 H       -3.412866584     5.505320895    -8.063218259
 H       -3.877660578     5.690243720    -6.378158427
 H       -5.083900358     8.833632576    -8.220927945
 H       -5.630068486     7.468586990    -7.229644548
 H       -5.024317674     7.195603634    -8.857297981
 H       -0.370290556     8.213125235    -7.433579707
 H        0.795209151     8.579282052    -6.172675200
 H       -0.248670256     9.857658430    -6.778733678
 H       -1.544193469     8.996426419    -3.281068981
 H       -0.923644062    10.318161223    -4.288794921
 H        0.135394793     8.996144861    -3.808160110
 H       -6.782884082    13.959510802     0.158897971
 H       -7.716112149    13.392325431    -1.215665988
 H       -6.258766049    14.335171831    -1.493972275
 H       -5.374467754    10.754173700    -2.481232950
 H       -5.525086433    12.418317710    -3.084278003
 H       -6.961201004    11.494016521    -2.666861220
 H       -6.062796597    11.903003867     2.156365451
 H       -5.069352715    12.443447276     3.500480167
 H       -4.576676913    11.029323660     2.580630908
 H       -2.170707589    13.847590936     1.614049448
 H       -2.249758779    12.204795683     2.275354798
 H       -2.883575483    13.562090007     3.196218469
 H       -2.538963656    -1.666548325    -0.718209579
 H       -2.454091554    -1.649910056    -2.472537689
 H       -2.700529798    -0.138995932    -1.608981135
 H        0.893831330    -0.120416618    -2.956564345
 H       -0.634262464     0.779533533    -2.976927171
 H       -0.529521003    -0.810314763    -3.721564161
 H       -0.452095213    -2.976822065     0.761630643
 H       -0.643226572    -2.859806756     2.504556248
 H        0.906207121    -2.459521051     1.777775019
 H       -0.665861501     0.856956047     2.876216736
 H        0.772321089    -0.162738747     3.055121250
 H       -0.775582690    -0.692467271     3.700942979

