187   

Si        0.000000000     0.000000000     0.000000000
 C        1.865144939     0.000000000     0.000000000
 C       -0.668412900     1.715759120     0.000000000
 C        0.073340389     2.764622739     0.554428261
 C       -0.429018297     4.065429385     0.556548914
 C       -1.684985923     4.346972139     0.012349344
 C       -2.429679306     3.294460809    -0.535950797
 C       -1.930690873     1.994501152    -0.539575858
 C       -2.250752283     5.691808164    -0.007488789
 C       -1.643271690     6.785565176     0.483235573
 C       -2.211232244     8.129546856     0.462197699
 C       -1.468741922     9.184489301     1.009838979
 C       -1.970524303    10.483527515     1.011906118
 C       -3.232888584    10.755383462     0.470974987
 C       -3.976221324     9.704676977    -0.077527954
 C       -3.466930873     8.406884092    -0.084967546
Si       -3.912673287    12.464783122     0.464577976
 C       -5.725624525    12.367186569     0.252086161
 C       -6.456820467    13.051617505    -0.636312766
 C       -7.911683727    12.928354393    -0.756990939
 C       -8.578352082    13.695182219    -1.725353663
 C       -9.952876096    13.612225329    -1.876519256
 C      -10.699058013    12.727455258    -1.073914464
 C      -10.039179524    11.963495319    -0.102170516
 C       -8.663018057    12.082839436     0.062172703
 N      -12.108100431    12.691463469    -1.280549109
 C      -12.481319207    12.149215742    -2.609324258
 C      -12.889657580    12.080818273    -0.189726567
 C      -11.882617527    10.765964338    -2.926405498
 C      -10.645179184    10.875275731    -3.841756757
 N       -9.699505441     9.753879955    -3.703711744
 C      -10.209539378     8.460181479    -3.906900626
 C      -11.196755617     8.247705512    -4.894119917
 C      -11.711536142     6.980365840    -5.109151782
 C      -11.234252484     5.871805023    -4.394204739
 C      -10.235366932     6.079272866    -3.439706134
 C       -9.721220230     7.346695524    -3.197191563
 C       -8.745774583     9.933276335    -2.597808918
 C      -11.814312301     4.555341226    -4.661698440
 C      -11.440314952     3.427069523    -4.042855881
Si      -12.166156151     1.783509335    -4.378425134
 C      -13.923206942     1.906000823    -4.909743327
 C      -14.740227980     2.910002496    -4.372588352
 C      -16.072317808     3.019423460    -4.761692819
 C      -16.625341679     2.122759867    -5.685619849
 C      -15.810564253     1.117366325    -6.213061732
 C      -14.474444698     1.007668375    -5.828590579
 C      -18.026461959     2.278302772    -6.062152614
 C      -18.675908079     1.491854630    -6.937077064
 C      -20.077068514     1.647656668    -7.313412859
 C      -20.892232889     2.652674201    -6.786416751
 C      -22.227280051     2.765109703    -7.174376075
 C      -22.778191511     1.869014479    -8.095629613
 C      -21.962837339     0.859690816    -8.625505422
 C      -20.629394210     0.753268312    -8.240217776
Si      -24.538233046     2.003782665    -8.617960663
 C      -25.500278323     3.147054360    -7.501210939
 C      -24.621198151     2.673626319   -10.397784550
 C      -25.303414036     0.260932324    -8.591540418
 C      -11.130993464     0.917514516    -5.719696197
 C      -12.081472804     0.751598177    -2.782366496
 C       -3.533484067    13.315067455     2.122144156
 C       -3.104034754    13.458285350    -0.939386133
 C       -0.646862750    -0.922709246    -1.534688601
 C       -0.632079709    -0.905267770     1.550085476
 H        1.062079424     2.606529907     0.994225027
 H        0.170143498     4.864439400     0.989467341
 H       -3.410589672     3.491672865    -0.964448608
 H       -2.558239483     1.214563770    -0.979494632
 H       -3.241726438     5.763763901    -0.465556423
 H       -0.652219695     6.714243213     0.940686179
 H       -0.487726264     8.989318090     1.438782495
 H       -1.346440585    11.266894708     1.450510037
 H       -4.966517183     9.860779263    -0.518294675
 H       -4.061383545     7.606290383    -0.521830208
 H       -6.202626475    11.669139395     0.962105325
 H       -6.019284713    13.760898397    -1.350055950
 H       -8.010226657    14.374271439    -2.361543836
 H      -10.465826663    14.236621358    -2.605390701
 H      -10.591380337    11.274453024     0.530572323
 H       -8.170512698    11.492635552     0.836796319
 H      -13.957063236    12.312805711    -0.353436111
 H      -12.604776498    12.543920529     0.771089187
 H      -12.781008951    10.988544899    -0.105224537
 H       -8.382771456    10.978180553    -2.580746772
 H       -7.862017323     9.292506101    -2.767889490
 H       -9.172201460     9.711616428    -1.606048633
 H      -11.559853114     9.080269989    -5.489457227
 H      -12.490394577     6.841868513    -5.860252640
 H       -9.846248805     5.234618498    -2.869490816
 H       -8.949525391     7.463489403    -2.443074804
 H      -12.604668362     4.578780504    -5.425783004
 H      -10.638702932     3.428229806    -3.289127640
 H      -14.362757690     3.636224245    -3.644433500
 H      -16.689754459     3.809775925    -4.339164391
 H      -16.215153307     0.407667477    -6.932009515
 H      -13.887687446     0.200554808    -6.275458277
 H      -18.542758769     3.107954048    -5.570276257
 H      -18.160024329     0.661878030    -7.428696586
 H      -20.488818099     3.360562416    -6.064655124
 H      -22.814943733     3.571886789    -6.727713355
 H      -22.338941817     0.130669638    -9.348789661
 H      -20.011663788    -0.036329967    -8.663840402
 H      -13.591910868    12.107919210    -2.661729749
 H      -12.173747938    12.898165534    -3.373264389
 H      -11.609510250    10.243331264    -1.989326930
 H      -12.641307848    10.116407193    -3.400484966
 H      -10.958288852    10.937783491    -4.908545961
 H      -10.091251237    11.820839961    -3.635649113
 H        2.263352007    -1.028666303    -0.059295733
 H        2.277571165     0.464197273     0.912629701
 H        2.258342331     0.559527862    -0.868583167
 H      -26.563880757     3.189920598    -7.796506685
 H      -25.105099914     4.177503179    -7.531646570
 H      -25.461163505     2.801147718    -6.452268579
 H      -25.719601134     2.789012468   -10.628878257
 C      -23.956028394     4.055100349   -10.539359599
 C      -24.011603692     1.723735565   -11.444186610
 H      -24.699232265    -0.352955888    -9.321290817
 C      -25.194786294    -0.409573020    -7.210089739
 C      -26.771837128     0.227796747    -9.051106227
 H      -11.588436778    -0.104354113    -5.857785286
 C      -11.188973149     1.656049949    -7.068933322
 C       -9.657135145     0.726811418    -5.318809911
 H      -10.989742308     0.697712758    -2.503379577
 C      -12.839832221     1.414554126    -1.618329572
 C      -12.600683293    -0.685353914    -2.963392511
 H       -2.408260047    13.365214893     2.194493190
 C       -4.080674116    14.750877161     2.201649398
 C       -4.051152119    12.512046785     3.328756164
 H       -3.633275960    14.454829102    -0.959690902
 C       -1.604343504    13.721024865    -0.714178758
 C       -3.287310660    12.787636537    -2.313139178
 H       -1.772354384    -0.919785121    -1.447682017
 C       -0.272800641    -0.215770672    -2.850061464
 C       -0.186562366    -2.389762939    -1.607134660
 H       -0.169159075    -1.933531825     1.516971030
 C       -0.187645241    -0.223447395     2.856984413
 C       -2.162355752    -1.070440646     1.574263984
 H      -24.393159170     4.819207201    -9.883827497
 H      -24.075683485     4.427270758   -11.566987671
 H      -22.873928623     4.029939681   -10.345700164
 H      -24.487525304     0.735259767   -11.465867285
 H      -22.931048704     1.575793842   -11.307569164
 H      -24.136908253     2.145761291   -12.452085649
 H      -24.162268724    -0.470322382    -6.837085972
 H      -25.563075221    -1.444018421    -7.262948335
 H      -25.795232167     0.093280252    -6.440455565
 H      -26.919689733     0.625166800   -10.063584263
 H      -27.444568309     0.773219568    -8.376069721
 H      -27.134598784    -0.810219275    -9.072764105
 H      -12.209988220     1.784597081    -7.454022028
 H      -10.640124554     1.089512007    -7.834056096
 H      -10.724107389     2.652254785    -7.029871120
 H       -9.527115694     0.134660309    -4.404240384
 H       -9.125363778     1.678949094    -5.181409609
 H       -9.119365937     0.187564395    -6.111944388
 H      -12.485468551     2.428640060    -1.388155830
 H      -12.709219389     0.825924783    -0.699322188
 H      -13.923750586     1.473247273    -1.793484836
 H      -12.045962950    -1.257590764    -3.717806577
 H      -13.666509361    -0.724789567    -3.230498707
 H      -12.501082179    -1.243149573    -2.021021773
 H       -3.687915256    15.411182040     1.417682357
 H       -3.796580414    15.209345632     3.159898426
 H       -5.178208829    14.794498945     2.154335183
 H       -3.669697950    11.481690701     3.362964137
 H       -5.147715198    12.462138348     3.371940026
 H       -3.727788384    12.989216406     4.265086615
 H       -1.393350091    14.288232363     0.201320339
 H       -1.199497625    14.318726755    -1.544115203
 H       -1.007407243    12.798467437    -0.684664678
 H       -4.337302121    12.599974793    -2.576022432
 H       -2.753419851    11.829362514    -2.393392066
 H       -2.880730067    13.432227592    -3.105180146
 H       -0.612418426     0.828862115    -2.894797987
 H       -0.743176996    -0.728521528    -3.701124889
 H        0.807714382    -0.219678601    -3.046416703
 H       -0.484126156    -2.982711896    -0.732670194
 H        0.900015175    -2.492793836    -1.727323063
 H       -0.639525161    -2.882088793    -2.480037190
 H        0.902195016    -0.142185097     2.957779906
 H       -0.532984762    -0.807391368     3.722301086
 H       -0.610753693     0.784154013     2.978259546
 H       -2.552449272    -1.639471209     0.720878485
 H       -2.695481543    -0.109671758     1.609706758
 H       -2.466690338    -1.622788700     2.475200040

