187   

Si        0.000000000     0.000000000     0.000000000
 C        1.865145662     0.000000000     0.000000000
 C       -0.672356420     1.713991990     0.000000000
 C        0.081021644     2.774266529     0.515221337
 C       -0.428298550     4.072441208     0.515186721
 C       -1.702073637     4.340241817     0.006512962
 C       -2.457953879     3.276219410    -0.502942054
 C       -1.952647033     1.978783529    -0.503362144
 C       -2.275611912     5.681792088    -0.014066201
 C       -1.658679978     6.784822655     0.442770107
 C       -2.231782482     8.126551283     0.422411060
 C       -3.505430926     8.394453290    -0.086190267
 C       -4.014419338     9.692996127    -0.086017622
 C       -3.265598825    10.749563300     0.441144562
 C       -1.989344636    10.483385212     0.955755906
 C       -1.478662924     9.188553547     0.940985419
Si       -3.903811693    12.474930527     0.458629577
 C       -3.389674431    13.365531059     1.970279525
 C       -3.174219612    12.770374085     3.151395999
 C       -2.762648515    13.475065294     4.366145175
 C       -2.568835364    12.737310836     5.543073878
 C       -2.179449820    13.354942757     6.720094898
 C       -2.016808260    14.756256622     6.772713598
 C       -2.211697858    15.497176481     5.591978486
 C       -2.555565451    14.856090774     4.408497564
 N       -1.620336016    15.367439156     7.977948537
 C       -2.143938440    14.774455027     9.223146414
 C       -1.623417460    16.840787162     8.006134222
 C       -3.681016490    14.796021069     9.301856255
 C       -4.214543937    14.600457079    10.730232851
 N       -3.773431828    15.600292307    11.730368845
 C       -3.618764316    16.918673269    11.245760892
 C       -4.702590732    17.502700919    10.555867478
 C       -4.600925986    18.791628954    10.061652763
 C       -3.440392275    19.555040387    10.265093536
 C       -2.380781872    18.982617148    10.971056882
 C       -2.463356041    17.685405733    11.465914724
 C       -2.719598349    15.099754040    12.627808370
 C       -3.386434751    20.912982789     9.720449833
 C       -2.334955335    21.732889519     9.851044441
Si       -2.261138707    23.429810316     9.173324567
 C       -3.918595186    24.221977619     9.092835909
 C       -4.904494409    23.881451823    10.025923682
 C       -6.164402823    24.475817525     9.974163004
 C       -6.463274909    25.432245240     8.999658513
 C       -5.471698946    25.778496699     8.072403326
 C       -4.213398899    25.183428345     8.118585458
 C       -7.767243638    26.080448956     8.907085283
 C       -8.801563755    25.840119935     9.730639892
 C      -10.105453194    26.488529196     9.637781067
 C      -10.405537488    27.441401223     8.660988977
 C      -11.665897477    28.036700176     8.608636065
 C      -12.657853998    27.684586808     9.529107692
 C      -12.359984729    26.727310956    10.508580951
 C      -11.099396271    26.139381204    10.562092276
Si      -14.326421280    28.460345908     9.474266656
 C      -14.581708957    29.429938330     7.901189602
 C      -15.628230805    27.078694523     9.614249326
 C      -14.530374162    29.638551395    10.955403239
 C       -1.136936027    24.474821883    10.296475528
 C       -1.490373242    23.349594917     7.435391097
 C       -3.208144194    13.399391248    -1.051611625
 C       -5.803536790    12.483422373     0.355524568
 C       -0.646998263    -0.920586584    -1.536027263
 C       -0.629931667    -0.908356600     1.549285104
 H        1.084142138     2.627264990     0.925200651
 H        0.179750882     4.880434932     0.918130576
 H       -3.452897357     3.462518793    -0.902788435
 H       -2.589857885     1.189540081    -0.911635694
 H       -3.280747004     5.742956136    -0.441270564
 H       -0.653197331     6.723547491     0.869656414
 H       -4.111853645     7.587552525    -0.492835439
 H       -5.012776759     9.841424422    -0.506120592
 H       -1.360075005    11.272538391     1.381914415
 H       -0.483952103     9.001342915     1.341242881
 H       -3.282359435    14.453739008     1.850031216
 H       -3.282899343    11.685921204     3.297559285
 H       -2.714018964    11.656271817     5.531412734
 H       -2.000690669    12.750560754     7.604498189
 H       -2.090059087    16.575844828     5.586437277
 H       -2.683217886    15.451840033     3.503602057
 H       -1.332151112    17.202375935     9.008622651
 H       -2.602367942    17.287279350     7.764939489
 H       -0.867369060    17.217026458     7.294178903
 H       -3.062298666    14.157053514    13.090253154
 H       -2.569719591    15.818763940    13.453530027
 H       -1.751322336    14.915916402    12.137005451
 H       -5.620593467    16.935563458    10.419677555
 H       -5.442673752    19.224175467     9.518482284
 H       -1.469628826    19.556452278    11.146151802
 H       -1.617623660    17.274288157    12.007723746
 H       -4.305377380    21.203908022     9.191801917
 H       -1.422960533    21.412786618    10.377835168
 H       -4.725825862    23.144465651    10.816448323
 H       -6.916831690    24.188629346    10.706580904
 H       -5.683723810    26.521512006     7.306039660
 H       -3.480510237    25.494366990     7.369167933
 H       -7.860693830    26.805775090     8.093533429
 H       -8.708245599    25.114798926    10.544401256
 H       -9.652766016    27.729734573     7.929582933
 H      -11.840503617    28.777010284     7.822969109
 H      -13.096335154    26.411572816    11.253156732
 H      -10.886648451    25.398746935    11.330763120
 H       -1.760220914    13.734105150     9.311454071
 H       -1.698947988    15.334280962    10.077099521
 H       -4.058900728    15.751543642     8.883926466
 H       -4.101297417    14.012203923     8.641125734
 H       -5.330940572    14.647085188    10.710855376
 H       -3.956307387    13.581727802    11.092674331
 H        2.263264448    -1.028964641    -0.054161160
 H        2.277221066     0.468475319     0.910669035
 H        2.258698503     0.555249416    -0.871102231
 H      -15.600173356    29.855630656     7.857171384
 H      -14.453492928    28.785350171     7.012730865
 H      -13.867430753    30.267623198     7.816401210
 H      -15.435496436    26.571640615    10.604318346
 C      -17.076810435    27.598311697     9.624842397
 C      -15.483458690    26.018758481     8.507286024
 H      -15.539364359    30.125246327    10.819639861
 C      -14.526187282    28.925482572    12.319368051
 C      -13.463259478    30.748372889    10.976433182
 H       -0.132719370    23.960934674    10.299720996
 C       -0.937741341    25.911391751     9.783167084
 C       -1.651981403    24.527865385    11.746037267
 H       -1.390598799    24.417746135     7.086547211
 C       -0.089177083    22.712969020     7.422586025
 C       -2.387775505    22.599858065     6.434524341
 H       -3.632909124    14.443274492    -1.000595597
 C       -1.673021702    13.506197693    -1.015271363
 C       -3.634189246    12.774140587    -2.391263002
 H       -6.067565802    11.948318290    -0.601928049
 C       -6.455963652    11.725111375     1.525522590
 C       -6.400760647    13.900427257     0.286483384
 H       -1.772089941    -0.925627525    -1.444346042
 C       -0.283503856    -0.205196935    -2.849739277
 C       -0.177173029    -2.384176177    -1.616975353
 H       -0.162421901    -1.934488680     1.516485198
 C       -0.189412331    -0.224778285     2.856637124
 C       -2.159455092    -1.080308128     1.572501337
 H      -17.277644503    28.310387486    10.435729947
 H      -17.774541586    26.760988835     9.771774223
 H      -17.367126604    28.076573445     8.679998527
 H      -14.485591017    25.558241860     8.475526924
 H      -15.698087168    26.412254047     7.504904481
 H      -16.194747520    25.197685889     8.676022333
 H      -15.310140145    28.163843714    12.416208452
 H      -14.706272451    29.653803341    13.123680780
 H      -13.562297939    28.449846691    12.548896638
 H      -13.453746946    31.362493192    10.066788568
 H      -12.445672898    30.359312617    11.125604467
 H      -13.653876329    31.438549820    11.810827725
 H       -0.482448554    25.959099926     8.785793262
 H       -0.262073814    26.460611853    10.455064569
 H       -1.873127197    26.488701343     9.752532263
 H       -1.765933685    23.536702394    12.205803692
 H       -2.616140374    25.048795978    11.838058223
 H       -0.943159677    25.081424539    12.378223329
 H        0.634070555    23.237191140     8.060147549
 H        0.325500181    22.739701037     6.404418553
 H       -0.097624304    21.655614869     7.722542953
 H       -3.394072160    23.031878249     6.341922252
 H       -2.507377216    21.535024235     6.682123530
 H       -1.944616564    22.635640891     5.429407029
 H       -1.290663291    13.993309171    -0.107751040
 H       -1.316843289    14.109186170    -1.862463378
 H       -1.175232247    12.529701263    -1.103270483
 H       -4.721988928    12.748441340    -2.534003412
 H       -3.255053497    11.750903193    -2.526021399
 H       -3.228926660    13.362548672    -3.227168523
 H       -6.122007496    10.681969217     1.612199736
 H       -7.546148477    11.689659474     1.391991508
 H       -6.279482163    12.208659940     2.497556406
 H       -6.047386139    14.480789768    -0.575268229
 H       -6.205238214    14.491119072     1.192485742
 H       -7.494431176    13.842526048     0.188735460
 H       -0.634174871     0.836037799    -2.889225118
 H       -0.750914737    -0.719489030    -3.701457707
 H        0.796432964    -0.197096753    -3.048979472
 H       -0.463759174    -2.982092206    -0.742245502
 H        0.909160335    -2.478980306    -1.745786063
 H       -0.633357351    -2.876704632    -2.488041897
 H        0.899882095    -0.135912944     2.956959620
 H       -0.530319610    -0.811731542     3.721606788
 H       -0.619234788     0.779927827     2.978734222
 H       -2.546552346    -1.650589314     0.718618488
 H       -2.696696009    -0.121810178     1.608335089
 H       -2.461824233    -1.634463584     2.472974259

