187   

Si        0.000000000     0.000000000     0.000000000
 C        1.865200164     0.000000000     0.000000000
 C       -0.680826483     1.710247327     0.000000000
 C        0.125557202     2.808308436     0.315744590
 C       -0.401325841     4.099783443     0.312503575
 C       -1.745014750     4.322528385     0.000704934
 C       -2.552798109     3.220710405    -0.311369545
 C       -2.029391626     1.930790689    -0.311260729
 C       -2.339450165     5.655026208    -0.015263430
 C       -1.677948757     6.791617466     0.261419205
 C       -2.272493064     8.124039057     0.245416254
 C       -3.616585211     8.345667647    -0.066592909
 C       -4.144019987     9.636586586    -0.070025956
 C       -3.339537122    10.733989103     0.253288008
 C       -1.991843285    10.514766674     0.568186424
 C       -1.465507794     9.225926249     0.558586863
Si       -4.011355687    12.446588226     0.255999368
 C       -3.197940817    13.497694589     1.511855616
 C       -2.695152916    13.037183776     2.665390594
 C       -2.043630985    13.875590313     3.672484503
 C       -1.556872890    13.275047866     4.841816044
 C       -0.932016108    14.023292124     5.826670051
 C       -0.818638333    15.424346244     5.698210140
 C       -1.309980770    16.027785921     4.524004484
 C       -1.888913987    15.256717624     3.524788410
 N       -0.184270664    16.183608933     6.698144464
 C       -0.193657106    15.642301832     8.068341803
 C       -0.397830764    17.640843702     6.662869160
 C       -1.604849744    15.541284536     8.669454089
 C       -1.561368836    14.814820008    10.023492861
 N       -2.871450531    14.762476091    10.694873733
 C       -3.439419478    15.982787062    11.102826313
 C       -2.616362693    17.086452366    11.413893822
 C       -3.175294980    18.289016077    11.815879825
 C       -4.560797742    18.428031109    11.977265751
 C       -5.372891347    17.324958339    11.700042842
 C       -4.830852900    16.119134359    11.275482901
 C       -3.780938376    13.775491724    10.087414922
 C       -5.096678176    19.721142442    12.403852609
 C       -6.399336270    19.973110257    12.591220939
Si       -7.059518505    21.592610697    13.124527584
 C       -5.998428573    22.979207084    12.544861600
 C       -5.384048624    22.895354948    11.289474520
 C       -4.575250182    23.931345693    10.825934139
 C       -4.370971403    25.078375274    11.598678295
 C       -4.992886847    25.163458983    12.850912761
 C       -5.798708701    24.128022301    13.318905897
 C       -3.532829472    26.186736884    11.153280186
 C       -2.882856569    26.228981705     9.977776167
 C       -2.044307618    27.336084859     9.530336883
 C       -1.834268638    28.482498159    10.301002331
 C       -1.024228535    29.517456459     9.833728021
 C       -0.402245825    29.425589316     8.584685548
 C       -0.611764439    28.276886906     7.809586952
 C       -1.424423823    27.247699224     8.276541534
Si        0.669764931    30.782818957     7.953801835
 C        1.112551928    31.991549684     9.303766020
 C        2.246063235    30.008011444     7.220195699
 C       -0.243868607    31.718284380     6.570495535
 C       -8.801062414    21.804775744    12.389257919
 C       -7.193373965    21.606982746    15.022193905
 C       -3.713152954    13.220147029    -1.456295486
 C       -5.883045755    12.419070410     0.595908447
 C       -0.653696748    -0.905473799    -1.541866407
 C       -0.615324175    -0.921992031     1.547392054
 H        1.183790874     2.696972170     0.567817907
 H        0.248591271     4.937820397     0.557858315
 H       -3.602086201     3.372113291    -0.557471499
 H       -2.707629206     1.110875062    -0.563787665
 H       -3.401334403     5.678882502    -0.276919430
 H       -0.615845305     6.767764106     0.522704513
 H       -4.265092751     7.507460538    -0.313873918
 H       -5.200440377     9.747065306    -0.329169098
 H       -1.315576872    11.337169258     0.826180853
 H       -0.415210785     9.075418329     0.801416430
 H       -3.161122104    14.568066381     1.259574977
 H       -2.728459791    11.974263466     2.944823741
 H       -1.658784110    12.197194393     4.976859085
 H       -0.536763346    13.517254909     6.702325229
 H       -1.233639376    17.100439320     4.378183171
 H       -2.243600606    15.748449380     2.617634503
 H        0.112495331    18.119994335     7.515280524
 H       -1.462222191    17.927183762     6.691696242
 H        0.060098367    18.052511896     5.745266105
 H       -3.215804489    12.883524230     9.768812003
 H       -4.330387761    14.166091195     9.214865253
 H       -4.508323569    13.436955891    10.847375297
 H       -1.536481607    17.007605155    11.332249999
 H       -2.520601592    19.136554007    12.024773424
 H       -6.454745089    17.404519408    11.817635454
 H       -5.498798552    15.288367710    11.072312262
 H       -4.318103677    20.483756241    12.550596092
 H       -7.159616966    19.191117978    12.447318039
 H       -5.509396130    22.022557819    10.639410368
 H       -4.103688777    23.839799119     9.849314145
 H       -4.847246001    26.047883287    13.468071014
 H       -6.258216202    24.251373147    14.303241243
 H       -3.459537920    27.018302943    11.860225050
 H       -2.957273094    25.397448461     9.270845418
 H       -2.304611669    28.577478176    11.277981888
 H       -0.897619656    30.389208933    10.481751908
 H       -0.151714436    28.149803365     6.825534278
 H       -1.576891386    26.364493813     7.659321962
 H        0.303818768    14.645436259     8.056569155
 H        0.453628436    16.289443586     8.703261715
 H       -2.044471792    16.550358147     8.789285170
 H       -2.281361547    15.009682372     7.972021122
 H       -1.196259265    13.770424030     9.892594462
 H       -0.830867398    15.301199463    10.709681790
 H        2.262992614    -1.029534795    -0.046532432
 H        2.275432879     0.474031338     0.908823245
 H        2.260668140     0.548292021    -0.874429476
 H        1.787105434    32.780622609     8.925949989
 H        1.631331525    31.482501107    10.136380823
 H        0.217933574    32.489100995     9.717434685
 H        1.898454901    29.333705417     6.384178655
 C        3.215974752    31.040869230     6.619276179
 C        3.005769047    29.139725512     8.239438523
 H        0.438291673    32.567013106     6.274484043
 C       -0.510369680    30.863190600     5.318846886
 C       -1.577275040    32.322124347     7.048271775
 H       -9.411991071    20.941110690    12.781261338
 C       -9.485607561    23.111807489    12.825562587
 C       -8.799584591    21.729730247    10.851832436
 H       -7.631478899    22.609396397    15.297975983
 C       -8.127255647    20.514193500    15.572484782
 C       -5.819971908    21.478626943    15.705439460
 H       -4.146767280    14.260494465    -1.408841922
 C       -2.214801398    13.341190080    -1.787342141
 C       -4.416925735    12.459763175    -2.593624243
 H       -6.342993770    11.807448976    -0.233059922
 C       -6.223138722    11.742587025     1.936100248
 C       -6.525568862    13.817336963     0.565699307
 H       -1.778351220    -0.910430133    -1.444458606
 C       -0.297999959    -0.174853280    -2.849333795
 C       -0.183667403    -2.367676945    -1.640484180
 H       -0.119325492    -1.935011321     1.516499449
 C       -0.196652252    -0.224973287     2.854945534
 C       -2.139090579    -1.138026538     1.570171254
 H        2.763906935    31.652837473     5.828052197
 H        4.072449089    30.527384199     6.158518346
 H        3.635697156    31.722518181     7.370958675
 H        2.388584406    28.340161729     8.673607802
 H        3.425572041    29.721617325     9.070702099
 H        3.854952334    28.640851187     7.751081693
 H        0.403254324    30.462998983     4.861487044
 H       -0.998123061    31.473301834     4.544533023
 H       -1.187924034    30.020127681     5.514361283
 H       -1.464504168    33.018390374     7.889255780
 H       -2.310424938    31.558138852     7.344664832
 H       -2.043834446    32.896221486     6.234887621
 H       -9.608667487    23.197676337    13.912720815
 H      -10.496768771    23.168319618    12.397129402
 H       -8.955577115    24.009811751    12.476954639
 H       -8.376440306    20.794300103    10.461018888
 H       -8.254282099    22.562191468    10.384175495
 H       -9.829086438    21.785440131    10.470687026
 H       -9.154739374    20.587491030    15.194225758
 H       -8.197439431    20.596569475    16.666765452
 H       -7.764351187    19.497704831    15.364898591
 H       -5.107883536    22.260639661    15.407861085
 H       -5.339425248    20.507239728    15.517245185
 H       -5.930947295    21.561437376    16.795660719
 H       -1.649711672    13.923754854    -1.046846414
 H       -2.081379853    13.854043843    -2.750361088
 H       -1.719823936    12.364518424    -1.888989564
 H       -5.507436791    12.415669503    -2.478947351
 H       -4.050639523    11.429712401    -2.711147661
 H       -4.229732853    12.961565866    -3.554091692
 H       -5.848009050    10.712646994     2.013464678
 H       -7.313062351    11.683868051     2.063983942
 H       -5.840016890    12.298905382     2.803991427
 H       -6.395318835    14.336291967    -0.392454343
 H       -6.149002796    14.477762480     1.359483826
 H       -7.610550010    13.735484902     0.724430416
 H       -0.653533747     0.865225758    -2.875621578
 H       -0.767788399    -0.681373637    -3.704420247
 H        0.780833159    -0.160517060    -3.053475890
 H       -0.466137093    -2.974959726    -0.770856907
 H        0.902169748    -2.460513265    -1.774977788
 H       -0.643290409    -2.851197369    -2.514803487
 H        0.889483604    -0.104587343     2.957273665
 H       -0.522289035    -0.820387288     3.719983339
 H       -0.654415138     0.767505199     2.975182350
 H       -2.512187680    -1.704525654     0.707641417
 H       -2.702757890    -0.195983915     1.625039548
 H       -2.422796011    -1.716206189     2.461685909

