187   

Si        0.000000000     0.000000000     0.000000000
 C        1.865327416     0.000000000     0.000000000
 C       -0.685601943     1.708079164     0.000000000
 C        0.132145714     2.818817520     0.229649797
 C       -0.403285224     4.106938001     0.226306559
 C       -1.766585452     4.313342304     0.000895658
 C       -2.585351618     3.198809810    -0.226350840
 C       -2.053422067     1.912596170    -0.227836327
 C       -2.371849761     5.640865868    -0.011959325
 C       -1.704376393     6.790240658     0.186649235
 C       -2.313866858     8.116128985     0.172934931
 C       -3.679136271     8.314019490    -0.053423448
 C       -4.221489730     9.598196004    -0.058263575
 C       -3.404672515    10.714662277     0.150816150
 C       -2.036293375    10.520719867     0.376198500
 C       -1.500116372     9.235392045     0.391352463
Si       -4.112599204    12.412538067     0.145931027
 C       -2.801027620    13.631266605    -0.217193052
 C       -2.542466695    14.740988580     0.486987394
 C       -1.478544496    15.691264269     0.158225060
 C       -1.302214144    16.820872623     0.971090702
 C       -0.310477559    17.749373136     0.702732573
 C        0.579705236    17.552224198    -0.375613750
 C        0.404173613    16.419120060    -1.191435204
 C       -0.623909139    15.521101601    -0.933891850
 N        1.579115049    18.508607410    -0.629227892
 C        2.228104200    19.118250599     0.545186017
 C        2.517902579    18.221951475    -1.725255421
 C        2.845976662    18.092885000     1.518732767
 C        4.010885961    18.698984696     2.323658333
 N        5.358266340    18.353121093     1.810633858
 C        5.527525495    18.674448660     0.433538558
 C        5.507299791    20.038601494     0.083026829
 C        5.666372451    20.418261637    -1.239714640
 C        5.880065831    19.461423273    -2.244052132
 C        5.922935043    18.112188097    -1.885890044
 C        5.758088194    17.716207926    -0.562693125
 C        5.769101927    16.990818108     2.196420030
 C        6.042419442    19.913536510    -3.628112278
 C        6.250355601    19.086392273    -4.660123465
Si        6.461652793    19.575085961    -6.408906695
 C        5.332423616    18.557915114    -7.445032964
 C        4.206071990    17.956773228    -6.869081452
 C        3.345604193    17.185065564    -7.645477986
 C        3.582115469    17.004954237    -9.014584325
 C        4.703462880    17.612611549    -9.586986734
 C        5.569931942    18.382723793    -8.812101902
 C        2.651099024    16.187239804    -9.784979483
 C        2.762581971    15.931441215   -11.099514692
 C        1.830027241    15.113241307   -11.867740073
 C        0.709850870    14.506819735   -11.293544540
 C       -0.156165732    13.732351738   -12.065210308
 C        0.083662045    13.542727444   -13.429749087
 C        1.206738071    14.149726989   -14.008174280
 C        2.066264268    14.926685830   -13.236446820
Si       -1.049991389    12.523360591   -14.461586764
 C       -2.220562696    11.521696341   -13.410078187
 C       -2.069422764    13.661326212   -15.596852744
 C        0.005553100    11.371820352   -15.549432770
 C        6.058157784    21.414445600    -6.667060242
 C        8.265894737    19.261460842    -6.919557302
 C       -5.444624979    12.541437394    -1.207569576
 C       -4.924476675    12.749142897     1.832287305
 C       -0.657153061    -0.900207695    -1.543306892
 C       -0.604531768    -0.929665125     1.547491580
 H        1.205537569     2.720029549     0.413320420
 H        0.255367651     4.955155464     0.403775804
 H       -3.649952799     3.337568845    -0.404868250
 H       -2.740704189     1.082486849    -0.414305019
 H       -3.449417247     5.649403570    -0.200916046
 H       -0.627023312     6.783261768     0.375827148
 H       -4.333060849     7.461458252    -0.226220927
 H       -5.296513666     9.690250457    -0.235470381
 H       -1.352631565    11.358934178     0.546901225
 H       -0.435167613     9.102518624     0.572089674
 H       -2.211707836    13.378683053    -1.114674576
 H       -3.114801659    15.025525279     1.379550248
 H       -1.964048104    16.980352788     1.822695992
 H       -0.221131800    18.633534209     1.327186047
 H        1.064761517    16.232041214    -2.032242256
 H       -0.747867736    14.658931903    -1.591333712
 H        3.204170049    19.078659238    -1.863325600
 H        1.955934282    18.108848857    -2.669583554
 H        3.134547755    17.324015368    -1.557366996
 H        5.804957124    16.935931184     3.298974413
 H        6.793612675    16.798561926     1.832810974
 H        5.105112244    16.192480667     1.830643504
 H        5.376222095    20.789564365     0.859582269
 H        5.639004610    21.476778052    -1.499291360
 H        6.093659895    17.349812133    -2.647894975
 H        5.793141277    16.658465365    -0.317606269
 H        5.974913514    21.002967987    -3.740489636
 H        6.323866002    17.995478622    -4.507985853
 H        3.967606202    18.068527147    -5.806153457
 H        2.477475459    16.720548671    -7.181028428
 H        4.909175501    17.488696489   -10.648566505
 H        6.430684279    18.832657930    -9.314283669
 H        1.818649778    15.774943887    -9.206906642
 H        3.594120919    16.343508626   -11.678607992
 H        0.502425413    14.635592232   -10.232708509
 H       -1.016171006    13.284016202   -11.559862867
 H        1.444690091    14.036322109   -15.069609704
 H        2.932121567    15.391555124   -13.704022229
 H        3.007145325    19.827342968     0.179999527
 H        1.474541677    19.745766854     1.072568612
 H        2.064759409    17.708455949     2.200093956
 H        3.191993828    17.204208697     0.956168691
 H        3.938365442    19.809394820     2.349965072
 H        3.955209117    18.370720273     3.385322711
 H        2.262758991    -1.030140978    -0.034288222
 H        2.274511156     0.484438230     0.903889425
 H        2.262043979     0.537737563    -0.880268114
 H       -2.866304300    10.879283899   -14.035092393
 H       -2.880659716    12.166465763   -12.803757724
 H       -1.665866015    10.861279946   -12.718842044
 H       -2.778269828    12.981169823   -16.151991197
 C       -2.908301821    14.683487119   -14.808031582
 C       -1.222199150    14.416508256   -16.636534887
 H        0.648723527    12.049124533   -16.183442489
 C        0.942039004    10.473685593   -14.721048271
 C       -0.826282979    10.489693720   -16.497219833
 H        6.702591153    21.980697023    -5.933835848
 C        6.393106020    21.917788437    -8.082390643
 C        4.584014259    21.739087991    -6.363060382
 H        8.346451228    19.596216548    -7.994457768
 C        9.276119786    20.073914365    -6.090719569
 C        8.646742158    17.771595534    -6.856824390
 H       -6.244458260    11.795823218    -0.929646068
 C       -6.095779809    13.933701537    -1.279506058
 C       -4.907995293    12.165250335    -2.600213697
 H       -5.253551747    13.828354297     1.808383597
 C       -6.166586903    11.879064992     2.095502921
 C       -3.940626627    12.572236334     3.003480560
 H       -1.781829049    -0.899561131    -1.445523094
 C       -0.298399554    -0.168633429    -2.849427891
 C       -0.193780232    -2.364283898    -1.644621728
 H       -0.094211522    -1.935610640     1.515426293
 C       -0.193482148    -0.227068824     2.854553516
 C       -2.124694263    -1.168645586     1.574192512
 H       -3.605518051    14.220838201   -14.097698778
 H       -3.523468805    15.278603203   -15.498133487
 H       -2.291337894    15.401694412   -14.248863701
 H       -0.651553538    13.753467584   -17.298939141
 H       -0.517790545    15.125431577   -16.178950091
 H       -1.875042780    15.013589998   -17.289946184
 H        1.609534383    11.039670706   -14.055471689
 H        1.594579872     9.892488724   -15.388057330
 H        0.401759241     9.743331782   -14.104218549
 H       -1.471825498    11.065405158   -17.172989378
 H       -1.459106717     9.767207006   -15.964922380
 H       -0.159283329     9.897440201   -17.140547395
 H        7.454892816    21.817623545    -8.341060023
 H        6.158136084    22.989121541    -8.165138147
 H        5.806660328    21.416732919    -8.865566322
 H        4.266775704    21.446275394    -5.352930459
 H        3.889612458    21.267889655    -7.074019132
 H        4.412620476    22.822073477    -6.439311578
 H        9.119445056    21.158502366    -6.153373307
 H       10.296830568    19.889644165    -6.455698909
 H        9.276701541    19.798748619    -5.026293840
 H        7.990383298    17.127854714    -7.459350185
 H        8.653636971    17.373562760    -5.832945345
 H        9.663013859    17.626010724    -7.250338338
 H       -6.581262703    14.236341183    -0.342842534
 H       -6.880222979    13.943392368    -2.049550382
 H       -5.384076465    14.725152000    -1.555949527
 H       -4.461834660    11.161498520    -2.638767178
 H       -4.159652905    12.876168984    -2.976771335
 H       -5.727933295    12.164614189    -3.332308149
 H       -6.965079173    12.024856770     1.356997372
 H       -6.603311541    12.133622886     3.072167420
 H       -5.936559826    10.804969503     2.135454489
 H       -3.037225484    13.191208426     2.916462675
 H       -3.612936434    11.530139627     3.129657404
 H       -4.422748501    12.859679002     3.948271233
 H       -0.650004033     0.872855451    -2.873739815
 H       -0.770511360    -0.671592007    -3.705349408
 H        0.780398670    -0.158313156    -3.053704613
 H       -0.478589872    -2.971773977    -0.775912364
 H        0.891586210    -2.461649150    -1.779601278
 H       -0.655889783    -2.844177343    -2.519621711
 H        0.890934554    -0.090231133     2.954648925
 H       -0.508326964    -0.827537672     3.720048663
 H       -0.665559787     0.758568237     2.976038978
 H       -2.493386356    -1.731470938     0.707437112
 H       -2.701761645    -0.235739945     1.642257668
 H       -2.395617327    -1.760340829     2.460860692

