187   

Si        0.000000000     0.000000000     0.000000000
 C        1.864402107     0.000000000     0.000000000
 C       -0.690275898     1.704652273     0.000000000
 C        0.124086722     2.826317762    -0.179667756
 C       -0.426109980     4.108184605    -0.175259921
 C       -1.802027261     4.292963603    -0.019718917
 C       -2.616631376     3.167514047     0.157525844
 C       -2.068120340     1.889583817     0.178568028
 C       -2.424162235     5.611437220    -0.008467878
 C       -1.757918679     6.770343904    -0.143505729
 C       -2.384383417     8.086701920    -0.131636203
 C       -1.576421532     9.221701848    -0.282461445
 C       -2.134060162    10.496852053    -0.276843202
 C       -3.516845703    10.665672927    -0.127949921
 C       -4.327721119     9.534126989    -0.000306457
 C       -3.766794820     8.257489756    -0.021107367
Si       -4.247491792    12.352252984    -0.121301678
 C       -6.067583901    12.235076317     0.011836109
 C       -6.821622322    12.910435618     0.888754688
 C       -8.278428569    12.801036919     0.977598108
 C       -8.953448966    13.563789389     1.942168783
 C      -10.330582310    13.498037690     2.068908744
 C      -11.080454787    12.617843275     1.260417563
 C      -10.405291590    11.849376319     0.297774289
 C       -9.027052731    11.960163855     0.151640119
 N      -12.485913669    12.577608574     1.417687433
 C      -12.962086145    12.577253473     2.815724610
 C      -13.214796514    11.611788895     0.578177266
 C      -12.458105250    11.374914645     3.632757707
 C      -12.428591629    11.714631932     5.132360815
 N      -11.966828260    10.598569200     5.973607219
 C      -10.644067786    10.148658347     5.794217002
 C       -9.636980071    11.032609464     5.352538319
 C       -8.335631027    10.586499334     5.176918041
 C       -7.975709517     9.263705947     5.469919400
 C       -8.969612252     8.397740691     5.934399867
 C      -10.279590068     8.824585240     6.104605966
 C      -12.999299036     9.565152174     6.162116572
 C       -6.590052696     8.830566204     5.270997191
 C       -6.162403528     7.587244719     5.525614181
Si       -4.474978545     6.914074499     5.324864237
 C       -4.628203157     5.344438701     4.368509927
 C       -5.409492784     5.332115372     3.204090528
 C       -5.547090220     4.164831352     2.457809196
 C       -4.902504297     2.983197681     2.848499099
 C       -4.118062087     3.001084114     4.004576279
 C       -3.978551314     4.168958234     4.754663848
 C       -5.074096395     1.781912882     2.036634830
 C       -4.509116755     0.592954814     2.308212379
 C       -4.671334252    -0.615248052     1.506834585
 C       -5.449468759    -0.659830514     0.347523555
 C       -5.572668517    -1.841551834    -0.384404302
 C       -4.930827954    -3.010921107     0.035449938
 C       -4.158916311    -2.971096611     1.204851391
 C       -4.035715699    -1.790435765     1.931043270
Si       -5.078263878    -4.583330241    -0.913750068
 C       -6.567523885    -4.558233669    -2.034922264
 C       -3.504814609    -4.881323796    -1.944320249
 C       -5.215797170    -6.018196206     0.332547332
 C       -3.297470054     8.110822523     4.439727821
 C       -3.758194054     6.574360415     7.056318744
 C       -3.559176193    13.333120434     1.359062555
 C       -3.780413283    13.233742941    -1.738140221
 C       -0.637104087    -0.924927064    -1.537992931
 C       -0.681760649    -0.900940504     1.529732368
 H        1.204464288     2.741247371    -0.319238975
 H        0.229956084     4.966820544    -0.302002732
 H       -3.689872915     3.292234973     0.298864081
 H       -2.753735631     1.050351656     0.345309715
 H       -3.509607297     5.603573247     0.132483981
 H       -0.672631439     6.778435487    -0.273980614
 H       -0.500471888     9.107665213    -0.396986503
 H       -1.455765948    11.345731144    -0.399827028
 H       -5.413745653     9.605309680     0.118646913
 H       -4.420193233     7.389331686     0.056170372
 H       -6.524194605    11.554611016    -0.725131402
 H       -6.398286770    13.604714448     1.627011369
 H       -8.389435157    14.229520280     2.596058874
 H      -10.832050330    14.128245870     2.798393383
 H      -10.944847157    11.158884213    -0.342503566
 H       -8.527989711    11.361177761    -0.611471915
 H      -14.299873750    11.737515064     0.732938772
 H      -12.953494179    10.560644813     0.779982738
 H      -13.018665402    11.833638069    -0.486329111
 H      -13.993043785    10.033098304     6.255360216
 H      -12.808504855     9.033578412     7.112639170
 H      -13.037952493     8.828992562     5.342793354
 H       -9.874180846    12.068888782     5.129169865
 H       -7.581479723    11.282267390     4.806226460
 H       -8.720988166     7.361373286     6.171064665
 H      -11.014935258     8.115688096     6.470180966
 H       -5.932438130     9.623962928     4.894576821
 H       -6.861246328     6.823103803     5.910840792
 H       -5.937607784     6.225422462     2.852939697
 H       -6.163480744     4.173177696     1.561416512
 H       -3.599800512     2.100097068     4.327302939
 H       -3.343311940     4.121642596     5.643232108
 H       -5.721494328     1.905429103     1.163863164
 H       -3.863552078     0.473946114     3.184472759
 H       -5.964245878     0.234261642     0.000568907
 H       -6.190092825    -1.813290923    -1.286128636
 H       -3.633769412    -3.852564038     1.583453798
 H       -3.438453222    -1.783852111     2.842257876
 H      -12.644035670    13.536111350     3.285970480
 H      -14.073845985    12.605029962     2.808829236
 H      -13.086186207    10.487410445     3.446024084
 H      -11.437641562    11.084881708     3.302490309
 H      -11.766561746    12.591867709     5.321128341
 H      -13.439967953    12.021472881     5.481951788
 H        2.263542012    -1.029654766    -0.006451695
 H        2.260900057     0.504123481     0.899682945
 H        2.271515627     0.520540490    -0.884493079
 H       -6.670812299    -5.512320357    -2.581940150
 H       -6.502695787    -3.750253857    -2.784663591
 H       -7.495826801    -4.405686244    -1.454763158
 H       -3.540359554    -5.970335592    -2.239654943
 C       -3.458044794    -4.048576039    -3.237490716
 C       -2.207802486    -4.644796432    -1.150216334
 H       -4.234797274    -6.040948191     0.890171251
 C       -6.340294295    -5.801311848     1.361309479
 C       -5.409396259    -7.392594684    -0.332575086
 H       -3.197561262     9.009250493     5.114858087
 C       -1.894801018     7.515357124     4.218359838
 C       -3.845824838     8.583848884     3.086668321
 H       -2.767425974     6.061908197     6.887220441
 C       -3.495152316     7.858677915     7.863457055
 C       -4.646347074     5.638202409     7.896161593
 H       -4.152680261    14.292805375     1.389187890
 C       -3.770588402    12.593309123     2.693632575
 C       -2.072082865    13.706721951     1.233466773
 H       -2.652670881    13.280348695    -1.748381509
 C       -4.232995623    12.455295812    -2.986382382
 C       -4.319818215    14.672354507    -1.819521582
 H       -0.340100723    -2.003550706    -1.393409689
 C       -2.166584061    -0.864284646    -1.688917833
 C        0.002075971    -0.427190193    -2.847383738
 H       -1.798167066    -0.962423837     1.358272919
 C       -0.151258253    -2.335310003     1.695242205
 C       -0.448940551    -0.121524049     2.835969042
 H       -4.289252122    -4.264092924    -3.920865302
 H       -2.536625162    -4.270109704    -3.795183144
 H       -3.452175485    -2.964333774    -3.051369221
 H       -2.130328905    -5.259542380    -0.245003620
 H       -2.078703621    -3.592039885    -0.853759593
 H       -1.335678229    -4.898838368    -1.769715856
 H       -6.241000840    -4.861177206     1.922542362
 H       -6.329561818    -6.607815096     2.108260318
 H       -7.341710229    -5.811579846     0.910707330
 H       -4.607293294    -7.656107731    -1.033664931
 H       -6.363729625    -7.477507861    -0.869310549
 H       -5.417054564    -8.181877390     0.433473431
 H       -1.390521282     7.220588027     5.146340549
 H       -1.243999812     8.258537157     3.734755327
 H       -1.902232044     6.642099312     3.548754159
 H       -4.799623383     9.123173929     3.152078273
 H       -3.977894228     7.755520213     2.374710259
 H       -3.136704393     9.277545926     2.608063909
 H       -2.780395764     8.537231915     7.380278582
 H       -3.063636028     7.606299433     8.842435759
 H       -4.411392510     8.430017007     8.069574285
 H       -4.877808517     4.686316825     7.399731320
 H       -5.600920354     6.102552892     8.181198708
 H       -4.137698645     5.379188161     8.835477837
 H       -4.820131438    12.333084084     2.890421139
 H       -3.444531108    13.225095165     3.531374910
 H       -3.185303733    11.664337276     2.762484311
 H       -1.838497623    14.275364369     0.324561672
 H       -1.407736192    12.832265513     1.265197133
 H       -1.774071415    14.345234178     2.078032121
 H       -3.847624011    11.426355654    -3.020870284
 H       -3.861188125    12.951136607    -3.894470687
 H       -5.325660066    12.405530037    -3.087726590
 H       -3.969832894    15.316029337    -1.002268187
 H       -5.418271389    14.717372904    -1.831388886
 H       -3.983054778    15.148372568    -2.751679133
 H       -2.715542613    -1.251099245    -0.817607130
 H       -2.484040969    -1.479152428    -2.544728243
 H       -2.536647529     0.151130879    -1.890139126
 H        1.095503202    -0.515910632    -2.859343554
 H       -0.250858658     0.618117546    -3.074495829
 H       -0.364862033    -1.023420975    -3.694864825
 H       -0.354747629    -2.976820025     0.827737355
 H       -0.637512336    -2.818465803     2.554873228
 H        0.928018856    -2.371629731     1.891675900
 H       -0.864282403     0.897024683     2.810447461
 H        0.612723724    -0.036786350     3.101279122
 H       -0.938282513    -0.634750125     3.675221712

