187   

Si        0.000000000     0.000000000     0.000000000
 C        1.865321797     0.000000000     0.000000000
 C       -0.661700060     1.718491578     0.000000000
 C        0.079739373     2.761179844    -0.566430517
 C       -0.416039147     4.064404035    -0.569416034
 C       -1.664977441     4.355259735    -0.013731680
 C       -2.409392119     3.308913525     0.546529025
 C       -1.917118833     2.006289181     0.550598206
 C       -2.222692312     5.703606414     0.005061543
 C       -1.611963671     6.789879822    -0.497904579
 C       -2.166346740     8.139385724    -0.480958005
 C       -3.414417939     8.435474670     0.073317507
 C       -3.905405666     9.741008490     0.067555706
 C       -3.164756928    10.776098479    -0.510845532
 C       -1.914334980    10.481428429    -1.071642393
 C       -1.421076612     9.180036810    -1.051613765
Si       -3.775977924    12.511094337    -0.539466559
 C       -3.323018842    13.355552030    -2.096601273
 C       -3.175668383    12.728299878    -3.271513215
 C       -2.813483516    13.395821802    -4.522302877
 C       -2.689581975    12.628104905    -5.688296850
 C       -2.348862953    13.210202480    -6.898939532
 C       -2.061276245    14.589936209    -6.974238160
 C       -2.181774730    15.360868752    -5.800890780
 C       -2.573604890    14.770268852    -4.607100933
 N       -1.715060538    15.185908263    -8.199634478
 C       -1.143731265    14.318539663    -9.243532518
 C       -1.062887277    16.505511725    -8.136074289
 C        0.229293447    13.738905769    -8.866314312
 C        0.675086244    12.696440061    -9.904327328
 N        2.021183528    12.158202023    -9.644012311
 C        3.105574275    13.048632028    -9.738302605
 C        3.030719935    14.183156884   -10.574433729
 C        4.099684700    15.060248188   -10.666909304
 C        5.296879015    14.821525827    -9.978007745
 C        5.381653803    13.680342371    -9.175473657
 C        4.313896210    12.800848755    -9.057510062
 C        2.043196005    11.199862201    -8.525133068
 C        6.393741865    15.781121673   -10.111587431
 C        7.580722731    15.657754548    -9.502109023
Si        8.952486486    16.855377356    -9.667563058
 C        8.941787945    17.696741236   -11.303366944
 C        8.465312826    17.019463193   -12.431772694
 C        8.450413292    17.642623314   -13.678500645
 C        8.923760097    18.949170188   -13.829577145
 C        9.409375913    19.621846496   -12.700677771
 C        9.421277845    19.003642139   -11.452655176
 C        8.927232955    19.640312407   -15.114704876
 C        8.490507191    19.109324958   -16.269319515
 C        8.493106308    19.798654296   -17.555343029
 C        8.961118102    21.106110970   -17.709381331
 C        8.945079904    21.726963373   -18.958348759
 C        8.453114225    21.054139902   -20.081058772
 C        7.982360874    19.742796811   -19.929030894
 C        8.005142686    19.123713516   -18.682474756
Si        8.424941226    21.859160431   -21.736381996
 C        8.724790292    23.696052934   -21.611495481
 C        9.774918123    21.092332030   -22.837583958
 C        6.730366338    21.521839854   -22.535407190
 C        8.820946642    18.137819090    -8.268388460
 C       10.593408498    15.911318755    -9.479009322
 C       -5.668150269    12.553714311    -0.345540258
 C       -2.993692044    13.459861748     0.912039758
 C       -0.632241103    -0.901435237    -1.552240301
 C       -0.650106140    -0.924182033     1.532112706
 H        1.063128702     2.596243116    -1.015528536
 H        0.182833644     4.858140897    -1.012209244
 H       -3.385140189     3.512993990     0.983427907
 H       -2.544577148     1.231479613     0.999630257
 H       -3.208697036     5.784918846     0.471614175
 H       -0.625581107     6.707161358    -0.963893187
 H       -4.014428646     7.645382302     0.520637561
 H       -4.883759658     9.912186636     0.524673448
 H       -1.292470738    11.252703785    -1.539030658
 H       -0.446351741     8.970691973    -1.487906996
 H       -3.193422772    14.444520972    -2.009217014
 H       -3.307980394    11.642533206    -3.384709241
 H       -2.877049839    11.553955132    -5.648817640
 H       -2.297645407    12.587200620    -7.786619302
 H       -1.982808133    16.427595487    -5.816476562
 H       -2.677307743    15.394783219    -3.718390591
 H       -0.777385537    16.839455184    -9.147607286
 H       -0.161061497    16.515806001    -7.501636193
 H       -1.783861016    17.247228669    -7.746895176
 H        1.116634231    10.601758420    -8.516889429
 H        2.151476275    11.681719158    -7.539209812
 H        2.878777297    10.491680736    -8.672236316
 H        2.130854290    14.385933839   -11.147226460
 H        4.009255243    15.943933523   -11.300438990
 H        6.302210552    13.468378697    -8.629271542
 H        4.424871091    11.925130770    -8.426289522
 H        6.151809401    16.623682050   -10.775148258
 H        7.793951181    14.808687092    -8.835178215
 H        8.088590676    15.992179511   -12.376034310
 H        8.067731409    17.097304978   -14.539333347
 H        9.783641278    20.639113601   -12.796866809
 H        9.812838789    19.577939179   -10.608717218
 H        9.322993466    20.659653522   -15.085282413
 H        8.095658155    18.089376980   -16.298348535
 H        9.345607995    21.653291314   -16.850585231
 H        9.325781722    22.750426291   -19.016476833
 H        7.585847669    19.168090054   -20.770831454
 H        7.637176501    18.104093047   -18.584706071
 H       -1.871654414    13.503681344    -9.461895891
 H       -1.070028085    14.909577722   -10.185041825
 H        0.980105703    14.548861516    -8.788386331
 H        0.188774753    13.281382339    -7.858492227
 H       -0.040610755    11.842888830    -9.930209471
 H        0.658493129    13.128686952   -10.930920656
 H        2.263919343    -1.028939127     0.051055771
 H        2.258615065     0.552934738     0.872743084
 H        2.277187835     0.471426295    -0.909130097
 H        8.669130169    24.176753101   -22.604559110
 H        9.719729909    23.920723944   -21.188830638
 H        7.967332987    24.177993160   -20.966954084
 H        9.737848653    21.666099434   -23.808543913
 C       11.185300500    21.253767195   -22.241296844
 C        9.541592754    19.604448156   -23.154918321
 H        6.647652530    20.399291883   -22.621994167
 C        5.559788071    22.013942113   -21.665075830
 C        6.588662223    22.114729410   -23.948551552
 H        9.723026545    18.807555738    -8.370951684
 C        7.559222390    19.010596603    -8.393698496
 C        8.854805521    17.508220794    -6.864330456
 H       10.559968839    15.426902093    -8.460777659
 C       10.748821102    14.799849324   -10.532494154
 C       11.828268283    16.827541397    -9.532608604
 H       -5.893736216    12.043443999     0.635066553
 C       -6.239441676    13.981460122    -0.279192709
 C       -6.387816617    11.781690893    -1.465972630
 H       -3.405424543    14.508773211     0.856892527
 C       -3.362758908    12.872488485     2.285357485
 C       -1.460788170    13.542174910     0.798705528
 H       -0.171630084    -1.930765941    -1.520385320
 C       -2.162853688    -1.062816751    -1.578273445
 C       -0.184831396    -0.218881235    -2.857800969
 H       -1.775556152    -0.917812986     1.444287648
 C       -0.194148013    -2.392803897     1.601340387
 C       -0.274792166    -0.221724364     2.849587987
 H       11.465131607    22.299139674   -22.058072520
 H       11.936409806    20.852378154   -22.936690957
 H       11.315252771    20.704212774   -21.297793593
 H        8.589139967    19.411513960   -23.664470311
 H        9.582481674    18.965860424   -22.261224092
 H       10.329093049    19.236615050   -23.828886130
 H        5.562698688    21.586235972   -20.652214019
 H        4.602674210    21.720450517   -22.119215315
 H        5.530805406    23.106784413   -21.562334887
 H        7.349954041    21.751524602   -24.650961154
 H        6.621251820    23.212268006   -23.957867925
 H        5.615977894    21.833159450   -24.377609178
 H        7.490250552    19.543657471    -9.352147022
 H        7.553918938    19.781980008    -7.610939517
 H        6.629432953    18.436975729    -8.268084868
 H        9.764555925    16.926534019    -6.668715249
 H        7.991263860    16.857337238    -6.667570629
 H        8.824965785    18.296719425    -6.098501313
 H        9.929166721    14.068411324   -10.519671096
 H       11.671776366    14.231940632   -10.348634142
 H       10.828258671    15.190766031   -11.557246729
 H       11.837697396    17.593183741    -8.746495987
 H       11.940377976    17.338731433   -10.499612169
 H       12.743351017    16.233790964    -9.393297958
 H       -5.832496565    14.576299211     0.548357599
 H       -7.327215265    13.943534162    -0.122705013
 H       -6.083548212    14.547342983    -1.208440165
 H       -6.076999679    10.730775213    -1.543746012
 H       -6.248877064    12.239682444    -2.456391041
 H       -7.471114641    11.769778001    -1.281313565
 H       -4.442716916    12.865471331     2.480584389
 H       -2.910158482    13.474855604     3.086362357
 H       -2.990866432    11.847485803     2.426744131
 H       -1.116345376    14.002150847    -0.137579340
 H       -0.973240391    12.560477979     0.886048128
 H       -1.055123363    14.159209749     1.612999045
 H       -2.554914406    -1.634969930    -0.727843945
 H       -2.467896787    -1.610078392    -2.482052186
 H       -2.693770171    -0.100652985    -1.609553839
 H        0.905247979    -0.138627273    -2.956598268
 H       -0.606762506     0.789257014    -2.978671386
 H       -0.529208483    -0.801534427    -3.724306238
 H       -0.489107269    -2.981772271     0.723306790
 H       -0.652568660    -2.887214978     2.470208936
 H        0.891626338    -2.499030900     1.726084502
 H       -0.610985761     0.823869729     2.896725887
 H        0.805590261    -0.229601519     3.046675131
 H       -0.747443096    -0.735320060     3.698887753

