187   

Si        0.000000000     0.000000000     0.000000000
 C        1.865118447     0.000000000     0.000000000
 C       -0.670467651     1.714744931     0.000000000
 C        0.120075178     2.791878872    -0.413714093
 C       -0.391737221     4.089142749    -0.412150192
 C       -1.702682291     4.338896242     0.001247588
 C       -2.495292064     3.258327672     0.410680583
 C       -1.988581919     1.961745335     0.406299221
 C       -2.279949360     5.678152347     0.019519207
 C       -1.633803174     6.797118741    -0.349707975
 C       -2.216441074     8.134485733    -0.329354717
 C       -1.429367097     9.217383754    -0.741794288
 C       -1.941934578    10.512560908    -0.739695117
 C       -3.265676928    10.748202391    -0.353190043
 C       -4.058314450     9.667112452     0.050618916
 C       -3.535360288     8.375501101     0.066964367
Si       -3.985143920    12.441385388    -0.334947883
 C       -5.747568324    12.301442364    -0.794553389
 C       -6.768022331    12.843532889    -0.118110906
 C       -8.173471192    12.719686505    -0.503151926
 C       -9.142776040    13.338856021     0.297078880
 C      -10.489747849    13.258205660    -0.014395893
 C      -10.924286726    12.480347053    -1.109951204
 C       -9.950060268    11.846051508    -1.906726553
 C       -8.600367751    11.987561462    -1.615049253
 N      -12.291296900    12.403753534    -1.419102414
 C      -13.254620359    12.590210798    -0.318162413
 C      -12.695865031    11.386834650    -2.402253102
 C      -13.034941440    11.692778791     0.913837271
 C      -13.694992199    10.306602249     0.784229576
 N      -12.856411097     9.183488438     1.260354112
 C      -11.764443961     8.907181753     0.379501011
 C      -12.093341288     8.284319063    -0.837736463
 C      -11.096049800     7.980701563    -1.749862076
 C       -9.750422308     8.258257014    -1.464059048
 C       -9.429530343     8.859297711    -0.244840606
 C      -10.423959709     9.179909657     0.675374912
 C      -12.494781611     9.301703968     2.683528831
 C       -8.747743483     7.911413971    -2.472880091
 C       -7.430104130     8.114908577    -2.343715116
Si       -6.234130781     7.653494147    -3.652293094
 C       -7.012629733     7.763026521    -5.317106702
 C       -7.946036612     8.777447846    -5.572985598
 C       -8.549317197     8.882886941    -6.822582302
 C       -8.228111511     7.986979082    -7.851131922
 C       -7.291423692     6.982052598    -7.595769708
 C       -6.687570581     6.871605726    -6.343177939
 C       -8.887232890     8.138056758    -9.144023241
 C       -8.673714771     7.347625357   -10.209617424
 C       -9.333499893     7.499669611   -11.502180244
 C      -10.270099178     8.504722970   -11.757074175
 C      -10.877028569     8.613584849   -13.008153230
 C      -10.555310176     7.720603898   -14.034972403
 C       -9.616168062     6.711555212   -13.781948380
 C       -9.015996601     6.602258349   -12.530690044
Si      -11.347399163     7.851004970   -15.691341131
 C      -12.246179129     9.472668466   -15.897374647
 C       -9.991982005     7.678088702   -17.016786028
 C      -12.593715951     6.429332463   -15.912060361
 C       -4.764622894     8.854815552    -3.576308596
 C       -5.627239087     5.881376012    -3.331634168
 C       -3.790751072    13.144638705     1.423624690
 C       -3.081874815    13.605818185    -1.534537728
 C       -0.627602198    -0.909758303    -1.549337318
 C       -0.653411215    -0.912509790     1.537630353
 H        1.153781963     2.659082013    -0.744791629
 H        0.244786761     4.910296111    -0.736660757
 H       -3.519923067     3.430783483     0.735382467
 H       -2.654371603     1.158170477     0.733444019
 H       -3.312246103     5.724389195     0.381386343
 H       -0.599388776     6.752705796    -0.701753569
 H       -0.402578566     9.049561403    -1.060373964
 H       -1.277842117    11.320570786    -1.057281900
 H       -5.101867271     9.795908705     0.359328647
 H       -4.168776238     7.551269083     0.391540468
 H       -5.918165549    11.716619553    -1.714378744
 H       -6.625125135    13.436857420     0.795083220
 H       -8.835218969    13.914410485     1.170692078
 H      -11.207096643    13.798604820     0.595045621
 H      -10.239859318    11.233510188    -2.755643849
 H       -7.867328348    11.494319251    -2.257514522
 H      -13.788929838    11.396236730    -2.537152469
 H      -12.386198389    10.363435167    -2.124153432
 H      -12.249385057    11.637101479    -3.382790626
 H      -13.423569562     9.314803694     3.279828221
 H      -11.906417008    10.196203241     2.938474994
 H      -11.923438765     8.406202427     2.985930542
 H      -13.131546624     8.034017052    -1.046835700
 H      -11.361322898     7.504693722    -2.694359565
 H       -8.390704165     9.094174349    -0.006697953
 H      -10.150283207     9.660538512     1.610307613
 H       -9.191249300     7.462769636    -3.374440468
 H       -6.999085238     8.556360408    -1.433186120
 H       -8.232096285     9.508788315    -4.808700711
 H       -9.275689475     9.673256353    -7.001699420
 H       -7.023267028     6.274115900    -8.377661762
 H       -5.960890539     6.066279288    -6.204528104
 H       -9.596932240     8.968609729    -9.201072072
 H       -7.963771756     6.517237754   -10.153136582
 H      -10.535151671     9.215038731   -10.976126281
 H      -11.602067751     9.420241987   -13.147230671
 H       -9.325347559     5.985627205   -14.546524272
 H       -8.290173513     5.811010546   -12.352704712
 H      -13.195372340    13.663380300    -0.012606333
 H      -14.284366962    12.454629338    -0.716261788
 H      -11.944939090    11.568708506     1.089757016
 H      -13.414886130    12.206950847     1.814745243
 H      -14.645273879    10.275441466     1.362035255
 H      -13.971494732    10.101574054    -0.273642273
 H        2.263148345    -1.028790031     0.060534908
 H        2.259770950     0.560302962     0.867256966
 H        2.276186297     0.461784931    -0.914597042
 H      -12.678361261     9.562080267   -16.910037032
 H      -11.559882453    10.326940885   -15.753227076
 H      -13.072606415     9.577874067   -15.172912083
 H       -9.529427386     6.661114515   -16.854801554
 C      -10.531754761     7.725910555   -18.457211798
 C       -8.879490840     8.730938504   -16.862401146
 H      -13.079794744     6.603811108   -16.915286336
 C      -11.942719456     5.034819909   -15.934387517
 C      -13.697508382     6.440607531   -14.838521263
 H       -4.502689848     8.966570924    -2.481203722
 C       -3.510342190     8.347047301    -4.307250852
 C       -5.135993139    10.241950184    -4.129168268
 H       -4.883561624     5.656714358    -4.150567547
 C       -4.907405420     5.724387505    -1.982779015
 C       -6.761449408     4.844223483    -3.415213417
 H       -4.336245865    14.132232797     1.425883986
 C       -4.427988057    12.241525576     2.495580630
 C       -2.324802187    13.409409628     1.810544903
 H       -2.016489587    13.660807894    -1.165327282
 C       -3.053897523    13.091490553    -2.983900281
 C       -3.661644643    15.032115328    -1.526188351
 H       -0.154612500    -1.933526342    -1.517356279
 C       -2.156081315    -1.090361097    -1.573431261
 C       -0.191164360    -0.222463135    -2.856144934
 H       -1.778083720    -0.918378651     1.440206162
 C       -0.182448298    -2.374943032     1.629132358
 C       -0.297748327    -0.188355913     2.848712670
 H      -11.282359688     6.952801615   -18.666198495
 H       -9.711802804     7.558502214   -19.170801507
 H      -10.971029707     8.697863696   -18.718055403
 H       -8.405054049     8.718479818   -15.870569191
 H       -9.228623844     9.755114464   -17.049008152
 H       -8.076738725     8.540549808   -17.588940037
 H      -11.197258927     4.914231975   -16.730526995
 H      -12.708674805     4.266169316   -16.113422539
 H      -11.464129873     4.772213903   -14.980370349
 H      -14.271108613     7.375949602   -14.811867175
 H      -13.309777982     6.258930279   -13.825745281
 H      -14.424593559     5.640281380   -15.037415933
 H       -3.129179858     7.397517625    -3.908456243
 H       -2.691601178     9.072500941    -4.190377498
 H       -3.660702290     8.222869165    -5.387649149
 H       -5.984646572    10.707799672    -3.610613206
 H       -5.370049196    10.226704602    -5.203303021
 H       -4.284710603    10.928364971    -4.013725004
 H       -4.051285443     6.406157416    -1.868415629
 H       -4.497145212     4.707575530    -1.890659211
 H       -5.575425901     5.869735473    -1.123482937
 H       -7.287530281     4.846656119    -4.379230625
 H       -7.517315229     4.973581593    -2.627395582
 H       -6.354564395     3.830842649    -3.288957359
 H       -5.491430607    12.030646350     2.318020753
 H       -4.369187079    12.726214062     3.480182193
 H       -3.912871203    11.275419290     2.597855649
 H       -1.824964807    14.134240678     1.155434846
 H       -1.714344358    12.495500760     1.827626522
 H       -2.273898718    13.829219713     2.825785620
 H       -2.617569035    12.087682201    -3.081949961
 H       -2.437989305    13.755020853    -3.607847094
 H       -4.051196630    13.074899327    -3.446644351
 H       -3.625894037    15.512214084    -0.539888996
 H       -4.702482190    15.072968988    -1.878821766
 H       -3.082986320    15.677972848    -2.202002275
 H       -2.540422303    -1.663736345    -0.720339808
 H       -2.454335346    -1.645949005    -2.474507190
 H       -2.698961803    -0.135151658    -1.609996518
 H        0.897561333    -0.126769398    -2.956546142
 H       -0.626808412     0.779748722    -2.977497453
 H       -0.528408268    -0.810690018    -3.721703795
 H       -0.462656105    -2.977688097     0.755638281
 H       -0.643800851    -2.863597442     2.499755050
 H        0.903154938    -2.467790022     1.765477973
 H       -0.651200317     0.852209759     2.879925633
 H        0.781028766    -0.176885838     3.053673034
 H       -0.768938970    -0.698408669     3.701015694

