187   

Si        0.000000000     0.000000000     0.000000000
 C        1.865235029     0.000000000     0.000000000
 C       -0.679235263     1.710708879     0.000000000
 C        0.115243143     2.802274562    -0.364792890
 C       -0.409637994     4.094554803    -0.361292403
 C       -1.739803736     4.324547701    -0.000570391
 C       -2.536087633     3.229068275     0.359720506
 C       -2.014732046     1.938353016     0.358871308
 C       -2.332338997     5.657774342     0.017897166
 C       -1.682520384     6.789700110    -0.302104951
 C       -2.277561260     8.122042531    -0.282805672
 C       -3.609253791     8.346311400     0.079022317
 C       -4.138305962     9.635938163     0.084043882
 C       -3.341789254    10.731736540    -0.266434477
 C       -2.007788217    10.511093559    -0.629772071
 C       -1.484980427     9.220138926    -0.641142319
Si       -4.038429314    12.434521827    -0.260346460
 C       -2.685201821    13.661590390    -0.226151164
 C       -2.559386248    14.713965406    -1.045212367
 C       -1.457243267    15.675027626    -0.983772543
 C       -1.433413632    16.739336704    -1.896909128
 C       -0.413522316    17.675810444    -1.881359337
 C        0.658818808    17.549464841    -0.969588697
 C        0.636770759    16.479548195    -0.053510907
 C       -0.417820914    15.576352908    -0.054644808
 N        1.681160988    18.506424505    -0.968698904
 C        2.082743485    19.089149539    -2.258687819
 C        2.775973187    18.335271180    -0.005719076
 C        2.404239274    18.078701750    -3.375643042
 C        3.773475465    17.388589984    -3.244769507
 N        4.963559175    18.252455281    -3.386125726
 C        5.393696022    18.874518691    -2.185704670
 C        5.829750296    18.028775021    -1.145535404
 C        6.263365582    18.568191273     0.054095538
 C        6.306915011    19.957831668     0.246514562
 C        5.902088783    20.791092237    -0.798742880
 C        5.463368671    20.263896497    -2.008836565
 C        4.933726368    19.108630685    -4.581473368
 C        6.773877510    20.475408420     1.534992229
 C        6.857755165    21.778404196     1.831612924
Si        7.431615936    22.481854051     3.418682181
 C        6.208949460    23.720486946     4.012614145
 C        4.875892454    23.647665302     3.589559379
 C        3.944124490    24.581860420     4.034855308
 C        4.317533692    25.601342282     4.920475288
 C        5.647579237    25.665993175     5.346005072
 C        6.584466128    24.735337453     4.898828139
 C        3.304370564    26.555997172     5.357990454
 C        3.529598365    27.579967680     6.198631038
 C        2.515667443    28.534122354     6.635549360
 C        1.186416145    28.469378602     6.210173940
 C        0.249421138    29.402854138     6.653180234
 C        0.624695737    30.427291231     7.527925757
 C        1.957824741    30.495008804     7.955441145
 C        2.889284111    29.558544344     7.515951300
Si       -0.599775116    31.667092776     8.121845709
 C       -2.182573353    31.594296206     7.137476536
 C       -1.003140222    31.333530945     9.951958776
 C        0.184912553    33.395601407     7.979655980
 C        7.638436987    21.131021010     4.740404183
 C        9.113973743    23.322718543     3.133923646
 C       -5.135817775    12.664759363    -1.796658836
 C       -5.109207365    12.668387254     1.295616150
 C       -0.619299244    -0.917460408    -1.548387791
 C       -0.652603200    -0.910698659     1.539490146
 H        1.162546199     2.685074767    -0.656544138
 H        0.230824706     4.927492398    -0.645576872
 H       -3.575005440     3.386056195     0.643591660
 H       -2.684033627     1.123608757     0.649101833
 H       -3.383279689     5.686532542     0.320434417
 H       -0.631771717     6.762183069    -0.605033923
 H       -4.246583732     7.510303270     0.360496748
 H       -5.186571614     9.749198023     0.374021510
 H       -1.341744517    11.331678733    -0.915895884
 H       -0.446978762     9.066440233    -0.929797424
 H       -1.945335679    13.470159409     0.568944909
 H       -3.282553829    14.937619509    -1.840462576
 H       -2.238826963    16.842643180    -2.624686466
 H       -0.444166616    18.512239142    -2.572895140
 H        1.439681599    16.347681444     0.664368219
 H       -0.418671470    14.765540033     0.675977578
 H        3.467749707    19.196863400    -0.061185650
 H        3.365901137    17.417786157    -0.163939226
 H        2.362211914    18.326171483     1.019471389
 H        4.739494098    18.477654211    -5.466533871
 H        5.929856799    19.566145511    -4.721094984
 H        4.179563667    19.910267623    -4.552230199
 H        5.834054630    16.951038419    -1.297680158
 H        6.590699381    17.901720763     0.852694387
 H        5.932102301    21.874942074    -0.674790192
 H        5.162733600    20.939139980    -2.804412226
 H        7.050503936    19.684406487     2.244108565
 H        6.579818476    22.548652244     1.092116875
 H        4.526360223    22.869714689     2.902748892
 H        2.913278317    24.514253431     3.691708502
 H        5.963233405    26.447963725     6.034141796
 H        7.609741566    24.836479427     5.265050140
 H        2.305764825    26.384138074     4.945383027
 H        4.527724558    27.752057632     6.611876238
 H        0.869327104    27.684017973     5.526427984
 H       -0.775756109    29.299756627     6.286814963
 H        2.308732922    31.274093384     8.638181360
 H        3.919450346    29.626448597     7.860439454
 H        1.249811289    19.754091239    -2.593552554
 H        2.953000428    19.764152536    -2.091175381
 H        1.620320336    17.292011072    -3.401907312
 H        2.331037961    18.589780541    -4.353902834
 H        3.826378624    16.850941936    -2.271793488
 H        3.861123748    16.604212596    -4.035092880
 H        2.263155883    -1.029142021     0.052836715
 H        2.260435967     0.553970014     0.871009827
 H        2.275647079     0.468566288    -0.911539667
 H       -2.895629876    32.368859013     7.472087119
 H       -2.683285468    30.615551525     7.239616410
 H       -1.989088927    31.764072369     6.062685793
 H       -1.797605798    32.085032031    10.230120579
 C       -1.578491564    29.923859255    10.181265653
 C        0.195373181    31.536100993    10.896161760
 H        1.102988599    33.373339709     8.636169174
 C        0.639995056    33.719718587     6.545175056
 C       -0.727775563    34.527416734     8.484232006
 H        8.318309693    20.353095091     4.286575213
 C        8.296788551    21.641694736     6.034477512
 C        6.303643544    20.452700736     5.099656640
 H        9.438193913    23.717767559     4.140122259
 C       10.195722414    22.349561178     2.633596528
 C        9.021338243    24.513383323     2.163191710
 H       -5.446440090    13.749744913    -1.794568624
 C       -4.376717454    12.384531062    -3.106722721
 C       -6.412574296    11.805563522    -1.773289288
 H       -5.942851175    11.912366260     1.215719038
 C       -4.332732960    12.383270890     2.593568861
 C       -5.741907392    14.068074252     1.385465825
 H       -0.134318770    -1.935643365    -1.515331927
 C       -2.145422156    -1.116550823    -1.573328234
 C       -0.190446103    -0.226499502    -2.855767314
 H       -1.777059435    -0.920531283     1.440288463
 C       -0.176975093    -2.371283561     1.636045022
 C       -0.301505869    -0.181189459     2.848808963
 H       -2.490526012    29.725232106     9.603833788
 H       -1.850906657    29.795519820    11.238699047
 H       -0.858252885    29.125714766     9.950429574
 H        0.617813366    32.547959794    10.854178504
 H        1.009676038    30.821527938    10.710778888
 H       -0.117666189    31.378198312    11.938640423
 H        1.340506381    32.978613348     6.134272414
 H        1.167345634    34.684132859     6.525578849
 H       -0.196453915    33.810494700     5.839617281
 H       -1.038683645    34.402191927     9.529474658
 H       -1.635015722    34.648627608     7.877630402
 H       -0.195428103    35.488560322     8.435343259
 H        9.302812467    22.051941501     5.879574464
 H        8.411067225    20.813808672     6.749502027
 H        7.696398555    22.406429894     6.547561460
 H        5.780181777    20.023371363     4.234738776
 H        5.601940010    21.134643042     5.601978184
 H        6.478305683    19.622722959     5.798719795
 H       10.380393668    21.512753105     3.319491002
 H       11.155019315    22.876084278     2.526317239
 H        9.966563723    21.925356917     1.645537389
 H        8.291201976    25.274000094     2.474197351
 H        8.769506195    24.211193807     1.137452384
 H        9.991665817    25.026837031     2.103252029
 H       -3.466214856    12.987681900    -3.225400462
 H       -5.015629323    12.615587229    -3.970426793
 H       -4.086136063    11.329208372    -3.212132332
 H       -7.064127543    12.016316258    -0.915790300
 H       -6.202843899    10.726709590    -1.780714591
 H       -7.015302909    12.004554465    -2.671355284
 H       -3.885199563    11.379766542     2.621773182
 H       -5.009594703    12.441281257     3.457779688
 H       -3.530711225    13.110452410     2.781085934
 H       -6.383999224    14.311586603     0.529317654
 H       -4.995017945    14.869738488     1.479483494
 H       -6.380139172    14.136537969     2.277891052
 H       -2.523815092    -1.690896752    -0.718313869
 H       -2.435954925    -1.679154964    -2.472524756
 H       -2.699319529    -0.167959237    -1.614639402
 H        0.897030722    -0.116469082    -2.955162351
 H       -0.638778530     0.769998198    -2.978653911
 H       -0.519083146    -0.820002079    -3.720937657
 H       -0.452529848    -2.977060932     0.763182217
 H       -0.639059669    -2.859387892     2.506512317
 H        0.908570397    -2.459885458     1.775611601
 H       -0.659815083     0.857904015     2.876204482
 H        0.776964052    -0.164098868     3.054780916
 H       -0.771302765    -0.690605905     3.702168481

