187   

Si        0.000000000     0.000000000     0.000000000
 C        1.865151369     0.000000000     0.000000000
 C       -0.670994871     1.714633604     0.000000000
 C        0.111750246     2.789999237     0.432942551
 C       -0.401061033     4.086948753     0.431046675
 C       -1.707250955     4.337782930     0.002943961
 C       -2.492062764     3.258775486    -0.425174304
 C       -1.982864221     1.963053911    -0.424765001
 C       -2.286188314     5.676908480    -0.016537395
 C       -1.645706337     6.795140399     0.365486011
 C       -2.229783748     8.132288367     0.343908935
 C       -1.451619785     9.216976111     0.770072419
 C       -1.968237375    10.510422152     0.766341892
 C       -3.281392054    10.746247928     0.343466205
 C       -4.061140034     9.665341016    -0.083156228
 C       -3.537357661     8.373583931    -0.086660329
Si       -3.992501584    12.443033054     0.327006308
 C       -5.812990272    12.293916789     0.394894473
 C       -6.690261878    12.899132151    -0.415293361
 C       -8.141925320    12.734614049    -0.304375369
 C       -8.972719389    13.416514672    -1.207024144
 C      -10.350805119    13.291012187    -1.139918497
 C      -10.936108593    12.450970280    -0.173225406
 C      -10.112087689    11.774009785     0.735355522
 C       -8.731657568    11.934856258     0.677081824
 N      -12.359007331    12.367857467    -0.159354410
 C      -12.903135284    11.694042951    -1.363396409
 C      -12.945045223    11.839848186     1.086479768
 C      -12.297308716    10.306679923    -1.647927574
 C      -11.240878731    10.361707515    -2.771542094
 N      -10.211640172     9.309468110    -2.679228851
 C      -10.675988492     7.985647718    -2.563863415
 C      -11.779704492     7.573164131    -3.341686139
 C      -12.256864280     6.276666277    -3.247704812
 C      -11.633870749     5.332747075    -2.417332072
 C      -10.523712894     5.735793624    -1.671304729
 C      -10.040539389     7.036490906    -1.742561386
 C       -9.068948367     9.689296324    -1.833673655
 C      -12.179296782     3.976079992    -2.355203846
 C      -11.669181554     2.993873289    -1.599623121
Si      -12.346990756     1.298243338    -1.518916685
 C      -13.150314844     0.801637972    -3.097426691
 C      -12.651033208     1.285039857    -4.312624782
 C      -13.246466253     0.919822927    -5.518738150
 C      -14.343686022     0.053938826    -5.540104020
 C      -14.836044274    -0.435899161    -4.323527280
 C      -14.246180367    -0.069188030    -3.116147913
 C      -14.998579119    -0.355512151    -6.778067373
 C      -14.627130582     0.040447504    -8.007497692
 C      -15.281811015    -0.368825451    -9.245590654
 C      -16.381359304    -1.230571209    -9.267863554
 C      -16.976906666    -1.596025155   -10.474966892
 C      -16.487918420    -1.101382690   -11.688014879
 C      -15.385358581    -0.236316059   -11.668412902
 C      -14.789794029     0.122376785   -10.462469814
Si      -17.262426181    -1.573851033   -13.289607958
 C      -18.912777327    -2.405421487   -13.035453765
 C      -17.474217646     0.001154270   -14.337600663
 C      -16.112702895    -2.770582270   -14.222000679
 C      -10.915303109     0.098240510    -1.158306183
 C      -13.597230725     1.204454484    -0.087692390
 C       -3.396681339    13.415222003     1.847829715
 C       -3.424666558    13.345992219    -1.245543025
 C       -0.651014297    -0.911724280    -1.539394446
 C       -0.628197891    -0.913254576     1.546882361
 H        1.140737528     2.656232854     0.778141493
 H        0.229864448     4.906974314     0.769088460
 H       -3.512287257     3.432206781    -0.762625982
 H       -2.642449378     1.161524349    -0.768928895
 H       -3.318375163     5.722579937    -0.376911476
 H       -0.613788404     6.751323891     0.725333014
 H       -0.430429601     9.050023156     1.107345349
 H       -1.314701063    11.318239081     1.106231646
 H       -5.092900755     9.792374141    -0.428200029
 H       -4.161315643     7.549149232    -0.427814943
 H       -6.156080367    11.635301011     1.212135419
 H       -6.387940565    13.567467990    -1.231051504
 H       -8.530626202    14.061920712    -1.966246521
 H      -10.989507829    13.847884510    -1.822698118
 H      -10.539431868    11.121180370     1.491334050
 H       -8.108060686    11.413616231     1.405416301
 H      -14.030836768    12.042170682     1.072733895
 H      -12.528012412    12.385771916     1.950509982
 H      -12.795141604    10.760147487     1.240822172
 H       -8.754234857    10.721933342    -2.073379091
 H       -8.209907619     9.033330709    -2.061471800
 H       -9.283550087     9.647860492    -0.753034691
 H      -12.259460563     8.274986790    -4.017848993
 H      -13.122886193     5.982557830    -3.842068988
 H      -10.020383799     5.021771829    -1.018034943
 H       -9.178661396     7.309141636    -1.141587016
 H      -13.056091456     3.832460807    -3.002793630
 H      -10.795535685     3.166930449    -0.953075210
 H      -11.790965665     1.962343714    -4.358240092
 H      -12.844401690     1.315126080    -6.449930046
 H      -15.688907743    -1.111621714    -4.318058427
 H      -14.673845450    -0.483635781    -2.199373140
 H      -15.846765404    -1.033238365    -6.644444248
 H      -13.778465160     0.717928047    -8.141226177
 H      -16.783743296    -1.626719293    -8.337363563
 H      -17.833614838    -2.273924915   -10.428494547
 H      -14.960393312     0.181816725   -12.585361176
 H      -13.933326674     0.794062370   -10.467699021
 H      -14.006027355    11.614114142    -1.241741492
 H      -12.746425602    12.379392740    -2.226439985
 H      -11.842450213     9.891736997    -0.727425915
 H      -13.091684418     9.586720308    -1.917902103
 H      -11.732864944    10.274559983    -3.766779352
 H      -10.727393053    11.351065095    -2.773107993
 H        2.263312204    -1.028611698    -0.061689671
 H        2.276608963     0.461172919     0.914705493
 H        2.259333902     0.561201473    -0.866912820
 H      -19.391549591    -2.643067306   -14.002187854
 H      -19.604551003    -1.750481847   -12.475185047
 H      -18.812798588    -3.350262634   -12.473067310
 H      -16.434886152     0.416462128   -14.485204459
 C      -18.077600586    -0.263246572   -15.728483110
 C      -18.313131690     1.075972918   -13.622807202
 H      -16.672343797    -3.063596782   -15.156953432
 C      -14.775189248    -2.138130058   -14.646288547
 C      -15.819363181    -4.051835718   -13.419977366
 H      -10.467242033     0.432434607    -0.178415219
 C      -11.375019358    -1.361595992    -1.001091895
 C       -9.815728792     0.163514439    -2.233611958
 H      -13.940953577     0.130980411    -0.041265653
 C      -12.984376313     1.565429781     1.277349578
 C      -14.830467731     2.092813537    -0.331376716
 H       -2.274652643    13.488086791     1.749347594
 C       -3.963159963    14.844575886     1.908287518
 C       -3.711302891    12.693574961     3.170328797
 H       -3.973608127    14.331950653    -1.254421687
 C       -1.914351840    13.641564212    -1.263867401
 C       -3.793607894    12.578530428    -2.528379221
 H       -1.775813078    -0.918657982    -1.443469775
 C       -0.294188377    -0.186333364    -2.849436093
 C       -0.179016737    -2.373813950    -1.631510775
 H       -0.153248957    -1.936127094     1.513942515
 C       -0.194762620    -0.227607444     2.855588544
 C       -2.156395024    -1.096658348     1.568144186
 H      -17.492323206    -0.971439066   -16.329129588
 H      -18.113683526     0.672161085   -16.305748118
 H      -19.109640085    -0.635544906   -15.683888069
 H      -17.908824139     1.359390820   -12.640393359
 H      -19.359381331     0.776911801   -13.475962075
 H      -18.335931910     1.997029172   -14.222519842
 H      -14.893607939    -1.259014468   -15.292186881
 H      -14.183525606    -2.864005710   -15.223088819
 H      -14.150453234    -1.847059827   -13.790006485
 H      -16.722593542    -4.612100264   -13.146329275
 H      -15.255638934    -3.857491341   -12.496063984
 H      -15.202304265    -4.737666269   -14.018038335
 H      -12.096242355    -1.506351252    -0.186746020
 H      -10.514195823    -2.004164910    -0.766127252
 H      -11.820241638    -1.771167169    -1.919205597
 H       -9.393032671     1.169054536    -2.365028409
 H      -10.160804397    -0.182473691    -3.218685744
 H       -8.976964881    -0.490072312    -1.955651686
 H      -12.145275743     0.918507781     1.563122100
 H      -13.739651395     1.454987604     2.068768689
 H      -12.637822134     2.607228730     1.327927386
 H      -15.359699351     1.859393277    -1.265677217
 H      -14.586306247     3.165003751    -0.350424514
 H      -15.560601541     1.956794668     0.478524893
 H       -3.706025002    15.452862982     1.031504943
 H       -3.554121713    15.374928865     2.780393119
 H       -5.056609273    14.867923838     2.020371671
 H       -3.303951938    11.673781922     3.218606735
 H       -4.788152129    12.631345777     3.378798492
 H       -3.265975918    13.241366133     4.013274050
 H       -1.583677967    14.275851952    -0.431526008
 H       -1.648750327    14.182140228    -2.184248054
 H       -1.299342525    12.730409492    -1.258159790
 H       -4.866536709    12.360935973    -2.618901457
 H       -3.256262258    11.623432183    -2.622219047
 H       -3.522418266    13.170874113    -3.413651926
 H       -0.648306111     0.854069001    -2.880340179
 H       -0.763817595    -0.695899491    -3.702885562
 H        0.784817158    -0.173885458    -3.053003378
 H       -0.462972720    -2.978283469    -0.760426027
 H        0.907163325    -2.466158819    -1.763286108
 H       -0.636250206    -2.860984035    -2.505135442
 H        0.893695922    -0.130798722     2.957865227
 H       -0.532779078    -0.817727724     3.719548623
 H       -0.631770090     0.773902146     2.977898600
 H       -2.538304409    -1.668264278     0.712765747
 H       -2.700850160    -0.142440695     1.606015286
 H       -2.455293162    -1.655134128     2.467164809

