187   

Si        0.000000000     0.000000000     0.000000000
 C        1.865229001     0.000000000     0.000000000
 C       -0.687115861     1.707408858     0.000000000
 C        0.117015696     2.813435001     0.292174012
 C       -0.418962571     4.101336136     0.288037625
 C       -1.769014486     4.312156946    -0.003275899
 C       -2.574432677     3.202307313    -0.292552083
 C       -2.042410012     1.916184953    -0.290191080
 C       -2.375172761     5.639119094    -0.019953285
 C       -1.722227485     6.785400619     0.236534009
 C       -2.336377910     8.109104480     0.217714768
 C       -1.542184655     9.226945708     0.504089342
 C       -2.086748826    10.508971282     0.497432018
 C       -3.437336763    10.704575961     0.186055091
 C       -4.232161370     9.589357914    -0.102781962
 C       -3.687791834     8.306574325    -0.080604132
Si       -4.189212421    12.383843744     0.167889343
 C       -5.491241630    12.530829168    -1.108077474
 C       -5.483755174    11.837058049    -2.254549778
 C       -6.511604175    11.934910776    -3.292097622
 C       -6.377172246    11.147557619    -4.446128750
 C       -7.318217820    11.198303796    -5.460732126
 C       -8.413980061    12.082545399    -5.371626777
 C       -8.547931923    12.876018321    -4.219338597
 C       -7.614884204    12.785405820    -3.192210291
 N       -9.352759770    12.104302356    -6.428234864
 C       -8.782337985    12.142187403    -7.792354742
 C      -10.502078945    13.006925065    -6.252612509
 C       -7.659858744    13.181866108    -7.972600611
 C       -7.738408827    13.978239663    -9.286245370
 N       -8.908676409    14.868193935    -9.455383871
 C       -9.350824191    15.561136656    -8.314689175
 C       -8.389859418    16.124494532    -7.445179074
 C       -8.790748465    16.812363379    -6.314503050
 C      -10.151118047    17.027067343    -6.041410360
 C      -11.099093053    16.508570188    -6.923894983
 C      -10.713365502    15.793043807    -8.052496668
 C       -9.943846023    14.317109662   -10.343696160
 C      -10.503940212    17.762098197    -4.828329951
 C      -11.753623193    18.044412904    -4.434403732
Si      -12.073431758    18.975296289    -2.889883511
 C      -10.700443792    18.593425480    -1.722870174
 C      -10.332773111    17.248316908    -1.564554894
 C       -9.304097897    16.895341623    -0.698497025
 C       -8.618251457    17.875323771     0.033059097
 C       -8.986331344    19.212920052    -0.125404187
 C      -10.017805787    19.570450441    -0.995516737
 C       -7.548630229    17.446311285     0.925728633
 C       -6.801409487    18.262075653     1.688746481
 C       -5.736680811    17.799411608     2.572881773
 C       -5.409762040    16.445705631     2.692916618
 C       -4.388536861    16.031874414     3.544667807
 C       -3.660219686    16.966180791     4.289645648
 C       -3.979805208    18.323277378     4.165119321
 C       -5.004451912    18.734195657     3.314626918
Si       -2.319317647    16.372370579     5.402380966
 C       -2.813271775    14.778780691     6.236347425
 C       -0.767809702    16.072816401     4.337701957
 C       -1.909027000    17.697146693     6.703461509
 C      -12.157675888    20.836417483    -3.266035922
 C      -13.733676388    18.425483872    -2.147801036
 C       -4.982579757    12.665446082     1.876509487
 C       -2.859955592    13.715993590    -0.105065653
 C       -0.653040704    -0.905611757    -1.542250769
 C       -0.610927738    -0.926019934     1.547050182
 H        1.180042486     2.710866855     0.526788281
 H        0.228645146     4.945885735     0.516124813
 H       -3.628897217     3.344657560    -0.521867602
 H       -2.719498499     1.089704200    -0.524017389
 H       -3.441884268     5.650224356    -0.264116231
 H       -0.656323053     6.777490994     0.480886189
 H       -0.487772120     9.095123946     0.738287534
 H       -1.420103606    11.341995074     0.736743815
 H       -5.294965801     9.682524935    -0.352070079
 H       -4.328234334     7.455065965    -0.303923111
 H       -6.289552424    13.253276374    -0.881620096
 H       -4.689687129    11.118490758    -2.505900494
 H       -5.525306214    10.473367946    -4.542276917
 H       -7.212526118    10.553658669    -6.328648034
 H       -9.372099116    13.576832945    -4.118133846
 H       -7.744268783    13.406856981    -2.304948401
 H      -11.204184180    12.881721611    -7.092814062
 H      -10.225158419    14.074845828    -6.193784291
 H      -11.046886050    12.726368229    -5.333461339
 H       -9.470618739    13.888266622   -11.243563614
 H      -10.595329450    15.139540229   -10.693960046
 H      -10.572760367    13.543342359    -9.875427576
 H       -7.330408211    16.022233284    -7.667300860
 H       -8.034233060    17.211385196    -5.635515796
 H      -12.161555245    16.667834703    -6.735547045
 H      -11.481022187    15.406705191    -8.713784715
 H       -9.618537611    18.062354221    -4.244567275
 H      -12.632217751    17.751547790    -5.021884444
 H      -10.829133072    16.441743565    -2.116417314
 H       -9.029527628    15.847081854    -0.590844941
 H       -8.468340184    19.991273453     0.431408114
 H      -10.264256601    20.632223022    -1.076865764
 H       -7.378057145    16.363966498     0.939511368
 H       -6.962998974    19.342400841     1.682511992
 H       -5.968187704    15.699102607     2.128357685
 H       -4.186968851    14.956831627     3.606195190
 H       -3.444528924    19.097982857     4.720438291
 H       -5.237858261    19.793669125     3.231614975
 H       -8.400575426    11.120305065    -8.019513969
 H       -9.606252465    12.320918991    -8.515389441
 H       -7.657853575    13.874928199    -7.104799173
 H       -6.674370328    12.678933613    -7.918050115
 H       -6.834590426    14.632494890    -9.365922131
 H       -7.684326398    13.279823117   -10.149670327
 H        2.262635174    -1.030059848    -0.036306059
 H        2.275091712     0.482867056     0.904364711
 H        2.261248036     0.539649301    -0.879440613
 H       -2.029485403    14.434408365     6.934195436
 H       -2.990274631    13.968408983     5.507264996
 H       -3.742578587    14.912443616     6.820014231
 H        0.032839152    15.724067986     5.051318840
 C       -0.969334115    14.976822191     3.275222710
 C       -0.265878727    17.349543032     3.639608013
 H       -1.641004440    18.628856596     6.125009276
 C       -3.109202638    18.029414943     7.608998921
 C       -0.703487914    17.333724691     7.589368820
 H      -12.251875045    21.350702666    -2.265912906
 C      -10.882482249    21.355134273    -3.955470606
 C      -13.376233930    21.231772814    -4.119489896
 H      -14.516839536    18.689509272    -2.916480601
 C      -13.804306631    16.907474606    -1.901657359
 C      -14.079338818    19.159132952    -0.840056337
 H       -5.258502533    13.758415522     1.917789134
 C       -6.268865728    11.844160789     2.074457442
 C       -4.018018243    12.362203193     3.036546965
 H       -2.124022497    13.601532093     0.743328240
 C       -2.100536983    13.511431121    -1.428618219
 C       -3.406536027    15.153312393    -0.064112895
 H       -1.777650185    -0.911269738    -1.444326294
 C       -0.298563377    -0.173420473    -2.849235890
 C       -0.181553267    -2.367145610    -1.642180277
 H       -0.113957297    -1.938401316     1.511788947
 C       -0.188933728    -0.231873808     2.855039772
 C       -2.134283746    -1.144049402     1.574235685
 H       -1.222041546    13.998812569     3.705126501
 H       -0.040120314    14.830218469     2.705814436
 H       -1.742529555    15.234681053     2.535530499
 H       -0.010255461    18.156978163     4.337468260
 H       -0.987578641    17.751391464     2.913940195
 H        0.651521392    17.133807438     3.073112696
 H       -4.008044956    18.330273113     7.052909233
 H       -2.860559357    18.871558904     8.270646135
 H       -3.392589161    17.195176382     8.264982164
 H        0.220382615    17.170207010     7.019511106
 H       -0.877523099    16.443022215     8.207461704
 H       -0.490472141    18.155471262     8.288718027
 H       -9.962713375    21.153893421    -3.389655500
 H      -10.936422779    22.445909883    -4.078217194
 H      -10.744364552    20.937465519    -4.963759764
 H      -14.336510170    20.979462411    -3.651998410
 H      -13.361347745    20.780931406    -5.121407999
 H      -13.388710752    22.320539082    -4.274151325
 H      -13.597160520    16.308496993    -2.798720376
 H      -14.814387974    16.627289455    -1.570204640
 H      -13.119160413    16.572411977    -1.109804131
 H      -14.135292963    20.249525319    -0.952881167
 H      -13.369695791    18.944211376    -0.028195499
 H      -15.066039775    18.836990393    -0.476919220
 H       -7.036699616    12.042526797     1.314679524
 H       -6.724807186    12.085611546     3.045372424
 H       -6.087286263    10.760305526     2.083756892
 H       -3.095782180    12.957768525     3.007277970
 H       -3.723068311    11.303491380     3.079442223
 H       -4.504308988    12.579838203     3.998806290
 H       -1.632199135    12.522082149    -1.519344447
 H       -1.287306561    14.245787783    -1.515069938
 H       -2.739184988    13.654864134    -2.312282694
 H       -3.856800342    15.423489748     0.901062743
 H       -4.148014318    15.356825630    -0.848919071
 H       -2.589755402    15.872330803    -0.223198088
 H       -0.655322653     0.866286642    -2.874334745
 H       -0.768356435    -0.679629629    -3.704496666
 H        0.780101319    -0.157807740    -3.053890923
 H       -0.462395236    -2.975245832    -0.772585136
 H        0.904249165    -2.458645882    -1.777797548
 H       -0.641580592    -2.850724127    -2.516247937
 H        0.897237705    -0.108874290     2.953592265
 H       -0.509750346    -0.830640977     3.719561362
 H       -0.648801164     0.759103235     2.979899083
 H       -2.509954643    -1.706847804     0.710445760
 H       -2.698803283    -0.202898517     1.635907176
 H       -2.414042945    -1.726762838     2.464068925

