187   

Si        0.000000000     0.000000000     0.000000000
 C        1.865270173     0.000000000     0.000000000
 C       -0.677425721     1.711767782     0.000000000
 C        0.131098189     2.807826936    -0.317010612
 C       -0.392953334     4.100435471    -0.313819157
 C       -1.735603441     4.326448658     0.000035336
 C       -2.545503722     3.226577151     0.313571459
 C       -2.025138250     1.935442681     0.312865738
 C       -2.327007406     5.660255643     0.016012862
 C       -1.663390847     6.795136707    -0.262602089
 C       -2.255594513     8.128607098    -0.246390949
 C       -1.446600587     9.229105382    -0.558007155
 C       -1.967935407    10.520585775    -0.555384297
 C       -3.310210711    10.743577237    -0.225642136
 C       -4.119758432     9.645583036     0.087311447
 C       -3.598299041     8.352976437     0.070837463
Si       -4.024047765    12.439370167    -0.214495528
 C       -5.351953707    12.615520879     1.029025030
 C       -5.408386422    11.928339742     2.178042661
 C       -6.473672437    12.072830705     3.170618040
 C       -6.422416551    11.296167973     4.337448847
 C       -7.404956191    11.394187471     5.308546465
 C       -8.463243963    12.318458801     5.164218774
 C       -8.513709596    13.101111488     3.993906229
 C       -7.541539005    12.959470598     3.012141959
 N       -9.453755079    12.412214717     6.150550008
 C       -9.096933822    12.075539110     7.537394433
 C      -10.451143046    13.482664671     6.015025399
 C       -7.921214189    12.874619206     8.122265976
 C       -8.305836779    14.336032889     8.406459406
 N       -7.177738028    15.163023211     8.861203171
 C       -6.126027311    15.397255729     7.955834575
 C       -6.314945243    15.263998711     6.564389437
 C       -5.267889691    15.498540447     5.685968964
 C       -4.012787759    15.916274253     6.149460124
 C       -3.835999918    16.077037065     7.526764536
 C       -4.869078446    15.832245355     8.420255601
 C       -6.799172407    14.895863499    10.259712608
 C       -2.934126114    16.152802331     5.187975000
 C       -1.704046654    16.552735148     5.537056323
Si       -0.306307782    16.869625698     4.406568939
 C        0.441249876    18.511683847     4.765650513
 C       -0.273722991    19.475195209     5.487100161
 C        0.294714542    20.717640520     5.757552879
 C        1.582635105    21.031182226     5.304336825
 C        2.290718821    20.068748870     4.578457284
 C        1.727513656    18.822136984     4.310575006
 C        2.135036135    22.346102002     5.612980705
 C        3.355837460    22.769260031     5.243513149
 C        3.908520898    24.084013908     5.551959835
 C        3.202823013    25.047486041     6.277207022
 C        3.770064632    26.292399208     6.549530123
 C        5.060746551    26.598372695     6.106823941
 C        5.770748370    25.633529113     5.379337948
 C        5.199637560    24.394353295     5.103820476
Si        5.822478569    28.236942988     6.458565094
 C        4.886738278    29.157398058     7.783980687
 C        7.625624580    27.957564533     7.001421018
 C        5.826971681    29.283200329     4.868394546
 C        0.995660989    15.504921899     4.654945961
 C       -0.894643995    16.861555599     2.598866343
 C       -2.658321839    13.714263239     0.133251955
 C       -4.766261417    12.804081073    -1.927982381
 C       -0.615438393    -0.920025844    -1.548487831
 C       -0.656304501    -0.906401087     1.539981532
 H        1.188690092     2.694161631    -0.570489421
 H        0.258394466     4.936786752    -0.560909951
 H       -3.594249286     3.380494729     0.560753825
 H       -2.704858327     1.117107004     0.566553189
 H       -3.388731321     5.686653223     0.278734681
 H       -0.602023229     6.768829546    -0.525950843
 H       -0.398726282     9.076195448    -0.808370555
 H       -1.290585961    11.338522566    -0.815542769
 H       -5.177305032     9.760324362     0.349334985
 H       -4.249700014     7.515188032     0.313099408
 H       -6.122328047    13.357248234     0.769905749
 H       -4.646128768    11.190013335     2.466059023
 H       -5.598821143    10.594988846     4.482725189
 H       -7.351602996    10.753718742     6.183507076
 H       -9.311538775    13.818779298     3.838227287
 H       -7.611865778    13.568867285     2.109964694
 H      -11.148321907    13.471283750     6.868572327
 H      -11.055071354    13.295086830     5.106590012
 H      -10.010338160    14.491480926     5.939787612
 H       -7.691240889    14.646541759    10.856906789
 H       -6.368928177    15.814562910    10.699379041
 H       -6.070538276    14.075414364    10.364346623
 H       -7.275123984    14.952679610     6.161565031
 H       -5.431670852    15.355383731     4.616245618
 H       -2.870480200    16.403661066     7.916993733
 H       -4.690003431    15.977341219     9.480389541
 H       -3.232154278    15.972428080     4.146978299
 H       -1.440916291    16.714100253     6.596296347
 H       -1.286130302    19.287260055     5.859703273
 H       -0.272849954    21.452717861     6.325189948
 H        3.292941532    20.287333233     4.215012473
 H        2.329523794    18.108986830     3.740843021
 H        1.470300934    22.997850994     6.187674048
 H        4.020100568    22.117390274     4.668713731
 H        2.198096976    24.832968556     6.636798077
 H        3.168611386    27.005212126     7.120431005
 H        6.783022713    25.816525301     5.008022035
 H        5.765745068    23.658784894     4.535585033
 H       -9.999248714    12.195734097     8.177936654
 H       -8.857081908    10.984526232     7.565735481
 H       -7.565351413    12.388724727     9.049001644
 H       -7.055336129    12.845177185     7.426135862
 H       -8.736517186    14.813782114     7.496286724
 H       -9.107622885    14.384494331     9.176983489
 H        2.263158909    -1.029812079     0.038920271
 H        2.260993421     0.542032883     0.878174705
 H        2.275103301     0.480513865    -0.905584237
 H        5.371641723    30.122311628     8.016582216
 H        4.848232060    28.571150136     8.720128639
 H        3.848007694    29.372645258     7.478090168
 H        8.136474193    27.453979279     6.129760083
 C        8.385303153    29.261857150     7.302386619
 C        7.736473522    27.020255013     8.217524612
 H        6.262343744    30.282108531     5.161221049
 C        6.700360415    28.693574621     3.746479749
 C        4.410055294    29.523288320     4.315829664
 H        1.787238812    15.681451122     3.870865053
 C        1.670679631    15.582093972     6.036331405
 C        0.430590892    14.088216667     4.453323750
 H       -1.494967153    15.911867844     2.475050270
 C       -1.818025276    18.053325186     2.285957779
 C        0.252561693    16.838468224     1.574126832
 H       -1.933355462    13.630978198    -0.727714076
 C       -3.177826265    15.161643586     0.177375255
 C       -1.892122494    13.414299084     1.433417572
 H       -5.166603525    13.857383987    -1.877701402
 C       -3.729808403    12.740199740    -3.063203330
 C       -5.936497715    11.863162335    -2.266253817
 H       -0.126833563    -1.936496365    -1.513865418
 C       -2.140596404    -1.125166425    -1.576761752
 C       -0.186471520    -0.228635784    -2.855685004
 H       -1.780647966    -0.913694145     1.438923528
 C       -0.183531973    -2.367642984     1.640258089
 C       -0.306044623    -0.174955423     2.848505404
 H        8.412657485    29.955209409     6.451900647
 H        9.433234107    29.036917087     7.548969441
 H        7.977675809    29.805839311     8.164735133
 H        7.259551049    26.042684064     8.056975785
 H        7.307294962    27.450910605     9.131908083
 H        8.793139070    26.813395508     8.439264656
 H        7.754366666    28.579249796     4.029443019
 H        6.688734925    29.360484604     2.871992021
 H        6.338070036    27.718537383     3.391100910
 H        3.741459205    30.021096320     5.029824603
 H        3.916923935    28.596649149     3.988363389
 H        4.455896714    30.175692178     3.432013765
 H        2.140291204    16.554963303     6.238779078
 H        2.473402275    14.834321140     6.105490501
 H        0.979449757    15.368988486     6.863205199
 H        0.004472803    13.926273675     3.454521966
 H       -0.343478652    13.827615515     5.189935633
 H        1.229905360    13.342988621     4.571099297
 H       -2.694647303    18.113353185     2.946240563
 H       -2.207796039    17.973610655     1.261636493
 H       -1.298797065    19.021045189     2.342002162
 H        0.897683761    15.955091827     1.662724490
 H        0.893079243    17.729940589     1.628273872
 H       -0.154065543    16.819524021     0.552428572
 H       -3.690535777    15.470953739    -0.741730503
 H       -2.334802323    15.858168217     0.304569113
 H       -3.860369048    15.344571625     1.019612013
 H       -1.490923566    12.392607118     1.483818144
 H       -2.505631675    13.568833685     2.333808391
 H       -1.025130923    14.086796855     1.518237888
 H       -2.905672030    13.454621750    -2.942233725
 H       -4.207912115    12.983717163    -4.023148006
 H       -3.290689435    11.739666134    -3.185907202
 H       -6.750108843    11.895488675    -1.528812061
 H       -5.624480840    10.813852758    -2.370228075
 H       -6.382333639    12.147205341    -3.230025187
 H       -2.519185885    -1.697957531    -0.720825070
 H       -2.426206748    -1.692199193    -2.474833968
 H       -2.698067411    -0.178961303    -1.623486353
 H        0.900755503    -0.114388213    -2.952999770
 H       -0.638335264     0.766004632    -2.980535975
 H       -0.511038744    -0.824341933    -3.720895484
 H       -0.458091926    -2.974647305     0.767948742
 H       -0.648485438    -2.853228561     2.510621125
 H        0.901543392    -2.457838959     1.782448582
 H       -0.661545523     0.865171599     2.872804011
 H        0.771918374    -0.160628247     3.057112583
 H       -0.779616492    -0.681181010     3.701708352

