187   

Si        0.000000000     0.000000000     0.000000000
 C        1.865294387     0.000000000     0.000000000
 C       -0.675933020     1.712558933     0.000000000
 C        0.136926457     2.807706265     0.309297048
 C       -0.384301900     4.101345163     0.306654048
 C       -1.728914502     4.329345414     0.002662202
 C       -2.543273588     3.230591210    -0.302604930
 C       -2.025326284     1.938399901    -0.303481170
 C       -2.316656303     5.664948721    -0.012085315
 C       -1.646141075     6.797646401     0.258634588
 C       -2.230702388     8.134493057     0.244776503
 C       -3.575374568     8.366355354    -0.058860647
 C       -4.092200045     9.661271150    -0.060314837
 C       -3.268885061    10.753976646     0.230929604
 C       -1.920847902    10.526140821     0.534846908
 C       -1.411195230     9.230319760     0.546023598
Si       -3.934650979    12.468201367     0.233280646
 C       -2.563946048    13.648523211    -0.033455685
 C       -2.305297017    14.732007959     0.709440823
 C       -1.192641988    15.650895722     0.456772118
 C       -1.024055808    16.754701596     1.307390605
 C        0.011884089    17.652767207     1.111339040
 C        0.934182070    17.451950780     0.064339822
 C        0.766093103    16.354096715    -0.791536181
 C       -0.299187177    15.479682415    -0.602997331
 N        1.969583789    18.411322964    -0.077735316
 C        2.899011984    18.497149673     1.066921544
 C        2.635915457    18.450155286    -1.388080115
 C        4.102737682    17.538663644     1.047948708
 C        3.739043909    16.048103564     1.182916298
 N        3.360960715    15.602740431     2.533553228
 C        4.216288926    15.925202977     3.594774771
 C        5.613858728    15.932319799     3.385781207
 C        6.475504437    16.248509365     4.422488504
 C        5.992616621    16.522860972     5.710617202
 C        4.611881110    16.485451809     5.922244352
 C        3.731191629    16.185580401     4.891369607
 C        1.916831139    15.603127205     2.797909224
 C        6.948652066    16.851366419     6.768495838
 C        6.606146388    17.130835978     8.033476879
Si        7.800298230    17.541350094     9.355619840
 C        9.425940509    16.721313149     9.091808225
 C        9.477550944    15.465264042     8.476023886
 C       10.699523932    14.828173022     8.267507819
 C       11.894866030    15.422975129     8.681728075
 C       11.840152380    16.675674006     9.306475973
 C       10.620977598    17.317302005     9.511794609
 C       13.195998435    14.792606200     8.484062780
 C       13.384979833    13.597059474     7.900350999
 C       14.684694710    12.964503545     7.701456344
 C       15.882377381    13.557429744     8.109290779
 C       17.103338825    12.916593320     7.899016321
 C       17.153032871    11.670217619     7.267026803
 C       15.953191910    11.073972747     6.855820583
 C       14.735633004    11.712591135     7.073570651
Si       18.756058262    10.811178273     6.981924745
 C       20.204649391    11.955924583     7.248629582
 C       18.908182218     9.339641593     8.179641688
 C       18.767141979    10.143184095     5.199197182
 C        8.020139132    19.429769487     9.425286745
 C        7.080799775    16.948292081    11.013998741
 C       -5.192064654    12.670720237    -1.179462192
 C       -4.815378850    12.790316686     1.886998455
 C       -0.656040659    -0.903644587    -1.541684398
 C       -0.616268608    -0.921432027     1.547115410
 H        1.196078143     2.692580086     0.555941273
 H        0.270617656     4.936992433     0.547070373
 H       -3.593493463     3.385946578    -0.541963915
 H       -2.708435042     1.120737210    -0.550030312
 H       -3.380060091     5.694172733    -0.266673083
 H       -0.582496515     6.766888911     0.513494927
 H       -4.233045523     7.532232685    -0.295862766
 H       -5.152152758     9.780856561    -0.300407432
 H       -1.232697386    11.344135048     0.772831353
 H       -0.362205011     9.070401150     0.789066773
 H       -1.937792950    13.394212888    -0.905596229
 H       -2.913446159    15.017612243     1.577520942
 H       -1.725415846    16.917587602     2.126243303
 H        0.112273116    18.525717167     1.753711355
 H        1.456899150    16.180935551    -1.611455800
 H       -0.420957951    14.639708948    -1.288698368
 H        3.286466117    19.341623364    -1.428990888
 H        1.872421020    18.568460673    -2.177832730
 H        3.245064226    17.562492081    -1.618992895
 H        1.363748028    15.289591509     1.892767474
 H        1.523424271    16.584281313     3.110266542
 H        1.690863261    14.857561726     3.582430646
 H        6.018805988    15.686737013     2.408718778
 H        7.550095587    16.268243544     4.235110036
 H        4.209775536    16.693726856     6.914845568
 H        2.666419741    16.171124244     5.098529059
 H        7.993067875    16.840356399     6.425034519
 H        5.552579294    17.143909534     8.350390373
 H        8.573423747    14.947949325     8.136312362
 H       10.714058471    13.855554612     7.778986286
 H       12.759049610    17.155531977     9.637344942
 H       10.640680211    18.292778622    10.004961980
 H       14.046545167    15.372526017     8.853897016
 H       12.533458275    13.017376159     7.531542104
 H       15.871491913    14.529485239     8.598891341
 H       18.006294331    13.428990615     8.242371103
 H       15.930620269    10.101227215     6.356462223
 H       13.814130827    11.232771034     6.749232431
 H        3.274326708    19.549215483     1.086990987
 H        2.328265155    18.357287121     2.012198561
 H        4.687666778    17.682907685     0.120430272
 H        4.790407023    17.829494751     1.870767898
 H        2.916371215    15.790314780     0.477695422
 H        4.611545150    15.427234350     0.864177835
 H        2.262978928    -1.029953977    -0.038095987
 H        2.275483145     0.481211642     0.905099434
 H        2.260747831     0.541056500    -0.878868688
 H       21.160401259    11.443394096     7.038552642
 H       20.247759693    12.326854801     8.287628686
 H       20.144294032    12.832972267     6.578947369
 H       19.927293086     8.894812013     7.988084520
 C       18.845333711     9.770967876     9.656325373
 C       17.857744594     8.239926649     7.942289253
 H       17.898244973     9.425750313     5.132099482
 C       18.544505391    11.250622008     4.153421528
 C       20.046968513     9.366271036     4.842595332
 H        8.713727116    19.633817265    10.291242900
 C        8.671308893    19.988893068     8.147450201
 C        6.703614437    20.183894854     9.685176937
 H        6.095605525    17.483904855    11.136464677
 C        6.805658832    15.433827031    11.020575499
 C        7.969576761    17.300412860    12.219652310
 H       -6.025832496    11.942410642    -0.960282969
 C       -5.799527096    14.082857478    -1.246436092
 C       -4.598554882    12.313135096    -2.553682594
 H       -5.113604358    13.878534544     1.874661665
 C       -6.091037140    11.949203510     2.070740698
 C       -3.892559225    12.559102490     3.097885028
 H       -1.780695163    -0.905745651    -1.444225891
 C       -0.298292479    -0.174166904    -2.849240824
 C       -0.190213732    -2.367219849    -1.640251493
 H       -0.129930628    -1.938934246     1.510624751
 C       -0.185103161    -0.233213309     2.855264982
 C       -2.141800963    -1.124033937     1.576122876
 H       19.619486726    10.498509536     9.932119087
 H       18.995854868     8.899831828    10.310002163
 H       17.871644695    10.199515637     9.934672187
 H       17.895852612     7.811525491     6.932788970
 H       16.830030496     8.584398992     8.124955783
 H       18.026702525     7.403464567     8.636169384
 H       17.614966812    11.816142214     4.311773878
 H       18.468647619    10.811096557     3.148685714
 H       19.369063722    11.974643765     4.112489778
 H       20.234643066     8.510426465     5.503803166
 H       20.946215527     9.996422332     4.847488709
 H       19.965585511     8.956120572     3.825421244
 H        9.649152518    19.540439281     7.923285962
 H        8.844305191    21.068983380     8.252458814
 H        8.039261716    19.862591299     7.256385888
 H        6.213744638    19.895367067    10.623785435
 H        5.973267895    20.059869705     8.873329886
 H        6.897925247    21.263489896     9.760359239
 H        6.129868813    15.109600348    10.217283442
 H        6.324983753    15.141555658    11.964781077
 H        7.723296214    14.832719039    10.944486940
 H        8.135314224    18.378581374    12.339136974
 H        8.954111510    16.812316769    12.182689774
 H        7.493973495    16.958236963    13.150187005
 H       -6.321659735    14.376692368    -0.326731456
 H       -6.545539330    14.133953353    -2.052501530
 H       -5.054284709    14.860037658    -1.468720268
 H       -4.179533669    11.297798372    -2.596860912
 H       -3.813296957    13.010490457    -2.876120338
 H       -5.381634411    12.354098770    -3.324250327
 H       -6.849923344    12.133867605     1.299786927
 H       -6.566555404    12.193031046     3.032051539
 H       -5.891928915    10.868327538     2.095322524
 H       -2.970734822    13.155765718     3.069878152
 H       -3.597813185    11.505734978     3.212981306
 H       -4.411980519    12.835397060     4.026228768
 H       -0.649928074     0.867220319    -2.875290723
 H       -0.770355754    -0.678777956    -3.704189706
 H        0.780497647    -0.163869541    -3.053897195
 H       -0.475249860    -2.973865349    -0.771003387
 H        0.895443447    -2.463380210    -1.773833135
 H       -0.650563180    -2.849233749    -2.515013665
 H        0.902612042    -0.123345415     2.952813053
 H       -0.512055736    -0.828791829     3.719687691
 H       -0.633027237     0.763009919     2.981497582
 H       -2.522578161    -1.690730921     0.717102548
 H       -2.697447987    -0.177138853     1.629424950
 H       -2.427493714    -1.696183978     2.470925117

