187   

Si        0.000000000     0.000000000     0.000000000
 C        1.865773388     0.000000000     0.000000000
 C       -0.636270504     1.731109113     0.000000000
 C        0.029986792     2.738829005    -0.705791690
 C       -0.451810444     4.048715960    -0.705555258
 C       -1.609381561     4.383957989     0.000139814
 C       -2.281191038     3.371371804     0.699205666
 C       -1.808540444     2.062174943     0.692215155
 C       -2.161357312     5.733273341     0.038368834
 C       -1.655467750     6.815735756    -0.578221727
 C       -2.257366629     8.145401137    -0.501004740
 C       -1.663743524     9.219974823    -1.175473983
 C       -2.219356675    10.498134106    -1.116919882
 C       -3.376550238    10.736919703    -0.366788995
 C       -3.967352180     9.663759876     0.312427131
 C       -3.415782560     8.387034708     0.243148096
Si       -4.171565781    12.398847384    -0.239723497
 C       -5.819678063    12.134833311     0.520866790
 C       -6.290310623    12.826734167     1.567262677
 C       -7.601621121    12.628086368     2.184756007
 C       -7.955289400    13.431987493     3.277962543
 C       -9.181514673    13.293006208     3.905940849
 C      -10.138803998    12.379072775     3.413507690
 C       -9.789851392    11.582572812     2.302853293
 C       -8.536928528    11.700913666     1.716377912
 N      -11.372365302    12.247560985     4.055370685
 C      -11.998742971    13.397400477     4.723908096
 C      -12.325972948    11.266306158     3.522608949
 C      -13.116789737    14.063489776     3.899408520
 C      -13.004676690    15.597379201     3.827849122
 N      -11.876539472    16.137178531     3.044999639
 C      -11.574993113    15.506556957     1.824642051
 C      -12.630399761    15.036421237     1.014462349
 C      -12.359662999    14.412006864    -0.191716976
 C      -11.047887136    14.302782065    -0.670877521
 C      -10.005992154    14.803769348     0.114655550
 C      -10.257096814    15.397970344     1.343825574
 C      -10.739377050    16.588762982     3.861274528
 C      -10.823268855    13.632810961    -1.951087968
 C       -9.617962823    13.467839241    -2.510226943
Si       -9.311357699    12.637036519    -4.103714005
 C       -7.988725789    11.371990891    -3.953437034
 C       -7.655466025    10.750955294    -2.744761268
 C       -6.638338655     9.796109104    -2.698898804
 C       -5.936419321     9.443761293    -3.857685993
 C       -6.280080749    10.064480569    -5.064198894
 C       -7.296663756    11.011939614    -5.116057196
 C       -4.873143165     8.443495815    -3.801603110
 C       -4.177252463     8.070192199    -4.889053005
 C       -3.104547235     7.087817022    -4.939397510
 C       -2.652540390     6.388202415    -3.819186404
 C       -1.619441388     5.459394818    -3.936782056
 C       -1.005677626     5.225467839    -5.173269130
 C       -1.457429267     5.927523992    -6.296336887
 C       -2.499876824     6.841844669    -6.180005348
Si        0.355992543     3.995944183    -5.308762164
 C        1.547735937     4.146412715    -3.883002213
 C       -0.460997607     2.273911375    -5.271964262
 C        1.300215443     4.203165684    -6.946329386
 C      -10.887531130    11.786042443    -4.744856639
 C       -8.777385725    13.966691768    -5.358739103
 C       -3.093518684    13.463548733     0.922373000
 C       -4.270479682    13.334234373    -1.890729366
 C       -0.642359676    -0.948236908    -1.519784449
 C       -0.646497863    -0.906702103     1.546159288
 H        0.947875031     2.536373587    -1.266422397
 H        0.095782763     4.821089859    -1.245123592
 H       -3.188335494     3.606799955     1.252554959
 H       -2.384962428     1.317462891     1.247923350
 H       -3.073742273     5.822427983     0.638750022
 H       -0.747066589     6.750411070    -1.182435532
 H       -0.763718889     9.055975665    -1.765593067
 H       -1.721418471    11.294602329    -1.675908625
 H       -4.868808242     9.782857663     0.923527261
 H       -3.900451426     7.574581738     0.781736988
 H       -6.426434186    11.358996266     0.027884284
 H       -5.710122375    13.620376477     2.058603146
 H       -7.244760025    14.165748795     3.660278416
 H       -9.396281014    13.881921269     4.792243664
 H      -10.500391356    10.880010733     1.880572572
 H       -8.293074507    11.068767155     0.860320245
 H      -13.222894597    11.223103373     4.162656686
 H      -11.862550585    10.261736047     3.544497947
 H      -12.645076916    11.484771547     2.488788593
 H      -11.103349197    17.097852631     4.768461468
 H      -10.163666453    17.337994550     3.284670869
 H      -10.054138711    15.778235637     4.160078525
 H      -13.661011792    15.170968983     1.328787533
 H      -13.187009745    14.024920390    -0.786912907
 H       -8.972643183    14.718813603    -0.229224224
 H       -9.416408514    15.745748633     1.936528739
 H      -11.750416308    13.271373910    -2.414953085
 H       -8.704664503    13.845778194    -2.020717390
 H       -8.169469801    10.998799308    -1.811080854
 H       -6.382442319     9.325402408    -1.750768478
 H       -5.753972911     9.808884401    -5.982868149
 H       -7.517648798    11.454344627    -6.091866109
 H       -4.667697761     8.020418828    -2.816145907
 H       -4.404185423     8.521242068    -5.863079094
 H       -3.105850057     6.565144070    -2.843513966
 H       -1.317497874     4.928383156    -3.027522523
 H       -1.022298629     5.783416489    -7.288315028
 H       -2.843613889     7.373618620    -7.064816781
 H      -12.412768568    13.021994721     5.690502128
 H      -11.225961399    14.146870620     4.999605884
 H      -13.122579257    13.643069219     2.872426247
 H      -14.103768940    13.797780566     4.321394801
 H      -13.936075932    16.005491324     3.361822574
 H      -12.971607588    16.020743363     4.855614879
 H        2.264381486    -1.029347304     0.033327959
 H        2.258488358     0.538318353     0.881940053
 H        2.276074117     0.488653817    -0.901042951
 H        2.408517131     3.466921950    -4.012653868
 H        1.067155272     3.899266036    -2.921111192
 H        1.943908099     5.175477859    -3.808823197
 H        0.369513803     1.537753528    -5.074936073
 C       -1.502008560     2.147026168    -4.144997013
 C       -1.136561739     1.888063671    -6.600382025
 H        0.528459697     4.116801229    -7.765468882
 C        1.977179824     5.580334682    -7.075219433
 C        2.358026591     3.108849319    -7.182528111
 H      -11.692033335    12.577036310    -4.743253278
 C      -10.751517914    11.251475796    -6.181650296
 C      -11.343700700    10.633801573    -3.830524541
 H       -8.647059590    13.434328931    -6.344473539
 C       -9.834996224    15.067831277    -5.550878312
 C       -7.434058986    14.620805532    -4.989790429
 H       -3.662628864    14.424250004     1.078434830
 C       -2.877175399    12.799747853     2.295037399
 C       -1.715532480    13.816972315     0.334652195
 H       -3.279731276    13.868149609    -1.990246812
 C       -4.431725437    12.441374770    -3.128381265
 C       -5.384698713    14.397667374    -1.892309569
 H       -0.511365390    -2.042477491    -1.273780566
 C       -2.137000834    -0.700255105    -1.789344672
 C        0.162890125    -0.662214817    -2.799156188
 H       -1.772054445    -0.896918924     1.464142222
 C       -0.196793300    -2.376746240     1.631585030
 C       -0.257220272    -0.196809448     2.855951154
 H       -1.101846418     2.367911319    -3.144369435
 H       -1.888360223     1.118088510    -4.102583735
 H       -2.377688411     2.795299832    -4.296274679
 H       -0.445745333     1.864006293    -7.452058990
 H       -1.969935520     2.554379737    -6.864402672
 H       -1.565293264     0.878372903    -6.523675242
 H        1.283789502     6.423317374    -6.948369033
 H        2.417472126     5.691746836    -8.076279017
 H        2.798363358     5.720268146    -6.359519705
 H        1.945446276     2.091703282    -7.162081106
 H        3.183292006     3.148479643    -6.459426914
 H        2.813367724     3.235765433    -8.175312407
 H      -10.526128196    12.033256707    -6.917971880
 H      -11.697734618    10.792522798    -6.502864764
 H       -9.985855007    10.468369843    -6.276495771
 H      -11.497550644    10.935822457    -2.785315794
 H      -10.638480403     9.790008384    -3.827910765
 H      -12.303745055    10.230928893    -4.181282244
 H      -10.801604286    14.686290751    -5.903533816
 H       -9.494970822    15.788982277    -6.307501683
 H      -10.020799434    15.647370271    -4.634862211
 H       -6.619516368    13.895532947    -4.846711194
 H       -7.496014287    15.234274395    -4.080031275
 H       -7.108435529    15.293795639    -5.795147760
 H       -3.810186796    12.535228119     2.810822752
 H       -2.336471444    13.482774973     2.964587138
 H       -2.270557154    11.884607694     2.231955115
 H       -1.770236144    14.393225578    -0.597456506
 H       -1.091346432    12.931891355     0.147024692
 H       -1.153885443    14.441105900     1.044923338
 H       -3.716571094    11.609294081    -3.177197136
 H       -4.282451170    13.028725043    -4.044424516
 H       -5.438857834    12.004177438    -3.204291169
 H       -5.281096642    15.141812679    -1.092701324
 H       -6.389919292    13.958074914    -1.812504711
 H       -5.367116457    14.956184352    -2.839093968
 H       -2.783622963    -0.989371722    -0.950824922
 H       -2.469616422    -1.295626911    -2.651618640
 H       -2.360983548     0.349193685    -2.031862812
 H        1.208448481    -0.988622633    -2.729107143
 H        0.163729493     0.400116447    -3.082365770
 H       -0.272532762    -1.206319725    -3.649450063
 H       -0.513797286    -2.981289488     0.772316499
 H       -0.639469210    -2.852699468     2.518917616
 H        0.890820763    -2.487068477     1.735080350
 H       -0.571280355     0.855625290     2.895160151
 H        0.823432894    -0.223719013     3.050832172
 H       -0.737720914    -0.693049847     3.711191232

