187   

Si        0.000000000     0.000000000     0.000000000
 C        1.864824150     0.000000000     0.000000000
 C       -0.658074464     1.720147633     0.000000000
 C        0.025302457     2.732984525     0.682805285
 C       -0.463123163     4.038768236     0.689899646
 C       -1.659994851     4.359898271     0.042333688
 C       -2.345397667     3.343279514    -0.634440766
 C       -1.848459715     2.042374522    -0.663115533
 C       -2.206327692     5.713426721     0.025537211
 C       -1.624309865     6.768401714     0.620201771
 C       -2.145241716     8.130695620     0.620747521
 C       -3.335924331     8.494264611    -0.013283133
 C       -3.787073716     9.814503872     0.019628914
 C       -3.043442936    10.805658001     0.668398624
 C       -1.842108852    10.444065750     1.293593222
 C       -1.399952686     9.125173092     1.268212782
Si       -3.601919613    12.560646808     0.735923944
 C       -2.890567031    13.444870187     2.174756164
 C       -2.560036931    12.893130104     3.350377314
 C       -1.992157645    13.637766723     4.478596289
 C       -1.685548745    12.948574868     5.662575145
 C       -1.147163286    13.608947964     6.756213293
 C       -0.915536518    14.997279246     6.706205949
 C       -1.222117409    15.689452281     5.525520179
 C       -1.744728547    15.011305404     4.428673046
 N       -0.359046376    15.622029776     7.863880783
 C       -1.262257507    15.516064779     9.039101151
 C        0.144204683    16.988419676     7.635967873
 C       -0.626795049    16.032001647    10.343351473
 C       -0.956335284    17.496624450    10.708289707
 N       -2.327996491    17.764851852    11.210415489
 C       -3.307291327    17.462582540    10.217248406
 C       -3.357919823    18.315946116     9.098431107
 C       -4.282815730    18.085117603     8.093301236
 C       -5.166515084    16.998697911     8.169265921
 C       -5.122284266    16.168013515     9.291630819
 C       -4.220427130    16.405718395    10.322428255
 C       -2.574884504    17.183137601    12.540715588
 C       -6.128393518    16.791243668     7.084922946
 C       -7.008331150    15.783054631     7.072468548
Si       -8.243432133    15.437256302     5.775166894
 C       -8.036656896    13.657169028     5.359855781
 C       -6.734299383    13.143599435     5.301460449
 C       -6.517778666    11.802937397     4.991676118
 C       -7.594131726    10.954563738     4.714686723
 C       -8.894274097    11.472187980     4.773398642
 C       -9.116193516    12.808000901     5.101508511
 C       -7.414274997     9.545949873     4.386022402
 C       -6.227378739     8.921758121     4.296065995
 C       -6.071091939     7.509531172     3.965350077
 C       -7.166819728     6.679614893     3.711274825
 C       -6.984824095     5.334369320     3.397910371
 C       -5.698018771     4.788669783     3.326071453
 C       -4.598796877     5.621651845     3.567016965
 C       -4.782992038     6.968115627     3.872449417
Si       -5.492943962     3.007706720     2.909575437
 C       -6.972259505     2.016538279     3.471659065
 C       -5.290925080     2.922913363     1.021814708
 C       -3.949808737     2.241150953     3.718552154
 C       -9.990000310    15.820291794     6.406517679
 C       -7.899696245    16.449638931     4.201852453
 C       -2.898549223    13.426370060    -0.814312622
 C       -5.491279716    12.687397111     0.631720634
 C       -0.662077846    -0.936223601    -1.518947621
 C       -0.626008931    -0.896018334     1.559872824
 H        0.960083210     2.542550674     1.217280291
 H        0.098110468     4.809995252     1.214490356
 H       -3.272053822     3.572017419    -1.160297056
 H       -2.424974065     1.295553034    -1.215816701
 H       -3.152350341     5.824808429    -0.510911451
 H       -0.679695075     6.646091557     1.159923083
 H       -3.932733381     7.741404406    -0.525092440
 H       -4.736726177    10.034007566    -0.475697575
 H       -1.210044526    11.176620054     1.807118870
 H       -0.464595940     8.866379408     1.760387849
 H       -2.752185888    14.524417475     2.001408416
 H       -2.700554563    11.824498306     3.564692037
 H       -1.867594200    11.875262806     5.724745408
 H       -0.890160630    13.054272907     7.656316741
 H       -1.073538282    16.762966389     5.457329286
 H       -1.974104395    15.573317581     3.522948170
 H        0.779842666    17.278352474     8.490149369
 H       -0.646503572    17.744620674     7.509501050
 H        0.796127445    16.997575816     6.744763581
 H       -1.866678265    17.636190878    13.256373059
 H       -2.469728781    16.088897373    12.593494079
 H       -3.591811000    17.457088377    12.873024462
 H       -2.679043170    19.164074043     9.040474731
 H       -4.319833188    18.754195569     7.233821190
 H       -5.806225463    15.321284802     9.373435185
 H       -4.214779710    15.751726286    11.189287176
 H       -6.060946803    17.541217002     6.287829000
 H       -7.044761924    15.050575831     7.898438807
 H       -5.851370983    13.763472027     5.501269274
 H       -5.497612921    11.421031979     4.965243679
 H       -9.743836334    10.825179675     4.566004403
 H      -10.150872967    13.156459323     5.140893840
 H       -8.344542624     8.997876154     4.210585581
 H       -5.291923763     9.463000943     4.465839845
 H       -8.178163737     7.077991097     3.762321541
 H       -7.881485023     4.735730412     3.216126982
 H       -3.569804785     5.251992284     3.512973630
 H       -3.914458377     7.603018242     4.039775850
 H       -2.228548925    16.019149356     8.826624243
 H       -1.503460539    14.434793969     9.173466925
 H       -0.942302926    15.371122088    11.173595378
 H        0.474351678    15.911345117    10.281791995
 H       -0.246026129    17.847502012    11.490521585
 H       -0.793763548    18.156339461     9.827160854
 H        2.263750066    -1.029668164    -0.024157146
 H        2.276699197     0.496394043     0.895735114
 H        2.258630088     0.530174480    -0.886565414
 H       -6.823909151     0.938028376     3.287659498
 H       -7.888680892     2.319492582     2.936027583
 H       -7.156047941     2.149783619     4.552602534
 H       -4.327471785     3.478715421     0.814523811
 C       -5.148774436     1.491563047     0.477839697
 C       -6.418554876     3.640177614     0.259098802
 H       -4.040788708     1.131164459     3.529242112
 C       -2.611098888     2.704872468     3.123659274
 C       -3.914964072     2.460887992     5.242472157
 H      -10.694289316    15.509970589     5.580675108
 C      -10.354046824    15.018819825     7.669657981
 C      -10.216444668    17.317502873     6.684088882
 H       -7.956802715    17.533862631     4.506820703
 C       -6.495594101    16.184177968     3.627516833
 C       -8.940012313    16.207370152     3.093725062
 H       -3.245630172    14.497494075    -0.756168782
 C       -1.359921999    13.421772844    -0.835822654
 C       -3.417694007    12.824329486    -2.130933696
 H       -5.779071911    12.107466464    -0.294671656
 C       -6.204629130    12.050357851     1.830319000
 C       -6.000421874    14.130291991     0.458764127
 H       -1.787575930    -0.915680108    -1.432531497
 C       -0.275742668    -0.259090253    -2.846610410
 C       -0.224862312    -2.411500720    -1.568459932
 H       -0.267502375    -1.961348062     1.463040098
 C       -0.040241031    -0.314407331     2.859492522
 C       -2.160234521    -0.915249198     1.676998590
 H       -4.292610983     0.950548920     0.904502328
 H       -4.983127861     1.517254963    -0.608904504
 H       -6.045809889     0.880341061     0.638868300
 H       -6.538712331     4.692696300     0.554657550
 H       -7.393486532     3.150014886     0.374296235
 H       -6.200618999     3.646100189    -0.818108770
 H       -2.526699284     2.529698596     2.040208918
 H       -1.781727296     2.149840999     3.585665994
 H       -2.399647368     3.768336108     3.297114472
 H       -4.802215497     2.073245596     5.759542250
 H       -3.808329513     3.519539633     5.518754490
 H       -3.051676527     1.938784524     5.678734936
 H      -10.244685886    13.932387055     7.546856136
 H      -11.406203197    15.193097516     7.936249495
 H       -9.761622126    15.314104133     8.546987926
 H      -10.066372481    17.951679307     5.800907933
 H       -9.574363581    17.706543294     7.487205787
 H      -11.252525015    17.487208535     7.010607741
 H       -5.682099108    16.382520067     4.339184955
 H       -6.313266284    16.834145044     2.760832245
 H       -6.370403519    15.148932513     3.272615444
 H       -9.965304526    16.456914561     3.394922054
 H       -8.942007664    15.170235904     2.728786699
 H       -8.715090989    16.838086718     2.221664828
 H       -0.909141393    13.890889934     0.049321966
 H       -0.992689054    13.985718336    -1.704785034
 H       -0.937603179    12.410433563    -0.925599867
 H       -4.508663060    12.881690856    -2.235878421
 H       -3.122580583    11.773929178    -2.266876918
 H       -2.998177809    13.372296293    -2.986947787
 H       -5.895518255    11.016386702     2.039827610
 H       -7.289352683    12.009816992     1.655580025
 H       -6.069345246    12.633198916     2.754060389
 H       -5.654729357    14.605450786    -0.467565756
 H       -5.726440619    14.786842118     1.296207697
 H       -7.099526575    14.135839259     0.415126464
 H       -0.589223548     0.792545914    -2.909090344
 H       -0.759349321    -0.774947339    -3.688310183
 H        0.804027783    -0.292191966    -3.045067857
 H       -0.541690011    -2.989115654    -0.690560515
 H        0.861018341    -2.534195269    -1.675735547
 H       -0.676579775    -2.907437322    -2.440001928
 H        1.054154061    -0.378832037     2.908923801
 H       -0.419895542    -0.874228306     3.726484440
 H       -0.322185359     0.735412288     3.024808869
 H       -2.662234912    -1.352679660     0.805231764
 H       -2.582318786     0.088057009     1.843084386
 H       -2.464076538    -1.522163823     2.542111196

