187   

Si        0.000000000     0.000000000     0.000000000
 C        1.865125433     0.000000000     0.000000000
 C       -0.674027031     1.713011407     0.000000000
 C        0.107996814     2.791599346    -0.425853704
 C       -0.409019207     4.086591263    -0.423217165
 C       -1.720660767     4.331499050    -0.007825037
 C       -2.505157485     3.249367335     0.411750567
 C       -1.990043059     1.955980170     0.415369614
 C       -2.301849481     5.669360577     0.010982772
 C       -1.653230099     6.785880793    -0.360799106
 C       -2.227395996     8.125995473    -0.344694542
 C       -3.538412924     8.376400187     0.069745173
 C       -4.048678753     9.674047437     0.069717586
 C       -3.242455225    10.749680760    -0.312540084
 C       -1.923939304    10.504094528    -0.718745794
 C       -1.425625478     9.204857543    -0.740503850
Si       -3.869196812    12.476608212    -0.328848815
 C       -2.515476333    13.584640293     0.202112524
 C       -2.127768719    14.687998421    -0.449078771
 C       -1.039802402    15.564082565    -0.007610235
 C       -0.736864680    16.690744656    -0.786772541
 C        0.282059104    17.555167634    -0.418218802
 C        1.023364222    17.304298744     0.748381938
 C        0.724724157    16.185778093     1.533792608
 C       -0.303942289    15.327906344     1.156355997
 N        2.056346208    18.252434028     1.048709426
 C        3.283702807    17.988802190     0.262208370
 C        2.321700505    18.426913288     2.488008802
 C        4.053323569    16.722716690     0.683549709
 C        4.542670562    15.876880382    -0.506859396
 N        3.582896536    14.888905385    -1.026924836
 C        3.097045505    13.901079917    -0.156675193
 C        3.738857530    13.630523184     1.070392943
 C        3.246256942    12.651541055     1.918689938
 C        2.167778969    11.839897638     1.544419932
 C        1.555016717    12.081624084     0.311319475
 C        1.997741944    13.096659619    -0.524954851
 C        2.626751647    15.434575618    -2.003643811
 C        1.699064365    10.826528476     2.488750032
 C        0.682594087     9.982223805     2.268925581
Si        0.147721755     8.735575741     3.497766226
 C        0.476654485     9.330558380     5.210147429
 C        0.326764094    10.692801383     5.499861254
 C        0.567676992    11.175302763     6.784636494
 C        0.951661532    10.308464402     7.812132486
 C        1.091939337     8.945258901     7.522829918
 C        0.854372906     8.460389069     6.238567947
 C        1.214199392    10.769076295     9.171568326
 C        1.116217287    12.046009986     9.578599940
 C        1.378446076    12.507886864    10.937575971
 C        1.764914070    11.644641990    11.965995068
 C        2.005575190    12.129394841    13.251611176
 C        1.871359652    13.492125473    13.534798363
 C        1.484533476    14.360281746    12.504773056
 C        1.239041619    13.872675798    11.224362470
Si        2.185252070    14.147632827    15.225855531
 C        3.039263019    12.886319456    16.302885466
 C        3.257880915    15.712622558    15.069106671
 C        0.531528378    14.625779954    16.038368322
 C       -1.701131175     8.394037253     3.255318279
 C        1.125380878     7.124041295     3.221652396
 C       -4.459886759    12.885121382    -2.088851594
 C       -5.327640807    12.686682600     0.872097649
 C       -0.625920127    -0.914827621    -1.546533593
 C       -0.648736788    -0.909440276     1.541787115
 H        1.139697091     2.661437864    -0.764428886
 H        0.223080242     4.909533614    -0.753404813
 H       -3.529268058     3.418023986     0.739275113
 H       -2.648757740     1.151424689     0.753893519
 H       -3.336485452     5.715082467     0.362179584
 H       -0.619175759     6.736938107    -0.717594369
 H       -4.177243079     7.555335241     0.388764683
 H       -5.085486491     9.808499853     0.388118375
 H       -1.254201154    11.313520450    -1.030236668
 H       -0.401098034     9.027187441    -1.064649649
 H       -2.022403289    13.267890248     1.137491394
 H       -2.602330234    15.028769592    -1.378518939
 H       -1.310648460    16.894868063    -1.690188630
 H        0.505966941    18.439012784    -1.013019331
 H        1.293258899    15.974664270     2.436038999
 H       -0.518984215    14.453760079     1.774409562
 H        2.966864430    19.313220551     2.616759631
 H        2.807833606    17.570124280     2.978292606
 H        1.369703938    18.634237588     3.007488706
 H        3.073830806    16.272222439    -2.561060295
 H        1.689050059    15.788217057    -1.537607810
 H        2.380585638    14.650975923    -2.743626214
 H        4.619374805    14.188661818     1.370689494
 H        3.730938386    12.495079292     2.883622994
 H        0.706640710    11.469292853     0.000195584
 H        1.483402763    13.264743251    -1.465912332
 H        2.274094408    10.824107075     3.427157578
 H        0.118082721     9.986880958     1.324480538
 H        0.023319924    11.418043652     4.736152222
 H        0.450649151    12.238871670     6.983021545
 H        1.388299607     8.253398274     8.308613301
 H        0.976810140     7.386462626     6.074115061
 H        1.508161966     9.982406480     9.872598059
 H        0.821496681    12.832079262     8.877341847
 H        1.880502466    10.580102883    11.770796893
 H        2.303821114    11.405097577    14.014615641
 H        1.364029792    15.435022922    12.667401714
 H        0.937257362    14.561880271    10.438052205
 H        2.989285760    17.932623087    -0.809224863
 H        3.933255197    18.886717974     0.357264607
 H        4.916570476    17.002398066     1.314047734
 H        3.407934637    16.095997701     1.334869366
 H        4.860007010    16.535041192    -1.346158504
 H        5.461948922    15.314186112    -0.210942816
 H        2.262921290    -1.028978904     0.058283915
 H        2.260039234     0.558449140     0.868407652
 H        2.276602006     0.463606723    -0.913572998
 H        3.265910926    13.302857007    17.300573519
 H        3.995885228    12.564205456    15.852899154
 H        2.416850625    11.986675063    16.451866436
 H        2.655211620    16.439618950    14.450594260
 C        3.565471433    16.384616381    16.419084889
 C        4.580580386    15.447816399    14.327338918
 H        0.791540198    14.960166617    17.084174113
 C       -0.190458708    15.787475691    15.332574196
 C       -0.438734424    13.434996297    16.144793450
 H       -1.815910041     8.100133158     2.168436382
 C       -2.233247094     7.235552543     4.115354220
 C       -2.562995443     9.644507722     3.501910198
 H        0.776546187     6.412600499     4.025315778
 C        0.861032139     6.460476884     1.861387291
 C        2.642374668     7.330473512     3.387256000
 H       -4.743271289    13.977307606    -2.078282047
 C       -3.357664031    12.685358316    -3.145295119
 C       -5.700064637    12.076620017    -2.509572004
 H       -6.116016174    11.952373720     0.536645811
 C       -4.953122627    12.354718218     2.327118245
 C       -5.943016115    14.096700436     0.825347456
 H       -0.148634569    -1.936638735    -1.513052063
 C       -2.153622841    -1.102019705    -1.568274191
 C       -0.193728775    -0.228446146    -2.855164010
 H       -1.773313744    -0.921759289     1.445006575
 C       -0.169811743    -2.368693523     1.640230985
 C       -0.296468724    -0.176583156     2.849122104
 H        2.664775876    16.669969264    16.977836147
 H        4.132376159    17.312718675    16.255581041
 H        4.183706899    15.759917789    17.077337388
 H        4.437352277    15.017716729    13.325637867
 H        5.256619476    14.781544862    14.879414896
 H        5.126521149    16.390697780    14.181173250
 H        0.405983079    16.707272991    15.284867401
 H       -1.108786585    16.046157798    15.879758101
 H       -0.505502793    15.535324100    14.310159349
 H       -0.029604503    12.587165231    16.709097152
 H       -0.759900457    13.057196195    15.163319996
 H       -1.354379834    13.740838725    16.670978911
 H       -1.730440801     6.280360193     3.913399052
 H       -3.299295035     7.070212340     3.903489659
 H       -2.160698493     7.432595694     5.193576390
 H       -2.280578590    10.495321044     2.864678318
 H       -2.538427524     9.983498246     4.546474776
 H       -3.614894695     9.422709387     3.271221960
 H       -0.194485010     6.188798302     1.714291357
 H        1.426906060     5.520868980     1.783011446
 H        1.173701039     7.083854252     1.013505759
 H        2.924384139     7.745944726     4.364152975
 H        3.068778331     7.986565770     2.614583767
 H        3.165496852     6.368207881     3.299258709
 H       -2.443116043    13.259083177    -2.941772749
 H       -3.716342071    13.014334737    -4.130681336
 H       -3.067376257    11.631010238    -3.261617447
 H       -6.571085691    12.246060261    -1.863537895
 H       -5.514732236    10.993670393    -2.544874198
 H       -6.011150776    12.365525726    -3.524139681
 H       -4.543500000    11.342410893     2.453139872
 H       -5.845658967    12.406013409     2.966925703
 H       -4.228837772    13.062658551     2.754549199
 H       -6.317311059    14.377562551    -0.167349791
 H       -5.244259595    14.880269962     1.152148231
 H       -6.805919630    14.153265230     1.504532557
 H       -2.534431409    -1.675328503    -0.713566838
 H       -2.450662092    -1.660566966    -2.467948658
 H       -2.700653141    -0.149311544    -1.605914209
 H        0.894489971    -0.127769734    -2.956647414
 H       -0.634159568     0.771406759    -2.978577097
 H       -0.528775422    -0.820203299    -3.719194743
 H       -0.445697826    -2.976863370     0.769110741
 H       -0.629172224    -2.856150629     2.512565245
 H        0.916223275    -2.454774747     1.777987829
 H       -0.656088429     0.862018606     2.875547348
 H        0.782407483    -0.157735562     3.053238797
 H       -0.763791911    -0.685398556     3.704249113

