187   

Si        0.000000000     0.000000000     0.000000000
 C        1.865382120     0.000000000     0.000000000
 C       -0.684171141     1.708702680     0.000000000
 C        0.133169913     2.818293776    -0.236321220
 C       -0.401156801     4.106879949    -0.232879901
 C       -1.763031212     4.314925375    -0.000560435
 C       -2.581539280     3.201512376     0.233149923
 C       -2.050723862     1.914824433     0.234186065
 C       -2.366971789     5.643042719     0.012656287
 C       -1.699292093     6.791202914    -0.192089397
 C       -2.306754379     8.117992323    -0.178136319
 C       -3.670547210     8.318374215     0.055088604
 C       -4.210803293     9.603399243     0.059866009
 C       -3.393550927    10.718167256    -0.156756363
 C       -2.026819708    10.521625433    -0.389245496
 C       -1.492586902     9.235462462    -0.403964354
Si       -4.101535089    12.415743668    -0.151426966
 C       -2.782199962    13.639387696     0.168020078
 C       -2.543986136    14.741380768    -0.554831852
 C       -1.473678827    15.697993249    -0.263730597
 C       -1.323657483    16.817833148    -1.096210021
 C       -0.327584703    17.751767709    -0.863987187
 C        0.583957447    17.568905432     0.196037189
 C        0.438378470    16.449015729     1.029439095
 C       -0.590215407    15.540159723     0.806414777
 N        1.585012703    18.553827593     0.391588684
 C        2.400245123    18.841304298    -0.808842574
 C        2.401079385    18.410618376     1.609903301
 C        3.004056299    17.580582168    -1.455416390
 C        4.337544394    17.839289962    -2.175124907
 N        5.458440539    18.294940930    -1.321981451
 C        5.522967743    17.727495845    -0.032191098
 C        5.437951514    16.323108113     0.085143791
 C        5.496683938    15.722014253     1.330529407
 C        5.673881610    16.485173891     2.495045483
 C        5.787890193    17.871439090     2.372069226
 C        5.728493410    18.491128907     1.128739941
 C        5.728223321    19.737593675    -1.425511819
 C        5.729053733    15.798791339     3.787427548
 C        5.894328500    16.425514443     4.959208861
Si        5.971409155    15.628414116     6.601931728
 C        7.448312055    16.233004811     7.515311407
 C        8.539821309    16.762776134     6.816254061
 C        9.660541380    17.221883828     7.503964832
 C        9.722707029    17.152502560     8.901825565
 C        8.633532334    16.616695591     9.595400861
 C        7.507938506    16.160404093     8.911122776
 C       10.918612345    17.646539754     9.576472275
 C       11.103657790    17.642464163    10.907497314
 C       12.299789309    18.136638849    11.581600636
 C       13.388524678    18.672197207    10.888800034
 C       14.512845851    19.133340849    11.573665741
 C       14.568995315    19.075167256    12.969648214
 C       13.477578602    18.539324834    13.666885157
 C       12.359532500    18.074283379    12.980439884
Si       16.045601606    19.679678673    13.887936585
 C       17.177989758    20.673146102    12.787572742
 C       15.444670423    20.744208352    15.347207408
 C       17.015103969    18.195036706    14.580225671
 C        4.389557446    16.083290021     7.556644206
 C        6.067565907    13.735634743     6.449511161
 C       -4.950434057    12.737226134    -1.822444038
 C       -5.403901029    12.557139029     1.228822181
 C       -0.605433957    -0.927476271    -1.548389774
 C       -0.657587037    -0.901994745     1.542004826
 H        1.205518986     2.718210184    -0.425349293
 H        0.257287754     4.954124495    -0.415603809
 H       -3.645126085     3.341591753     0.416852856
 H       -2.737837529     1.085657625     0.425559478
 H       -3.443549419     5.653220115     0.207216369
 H       -0.623012022     6.782267968    -0.387226318
 H       -4.325003358     7.467273968     0.233183957
 H       -5.284704394     9.697457353     0.243207017
 H       -1.342929090    11.358132373    -0.566668004
 H       -0.428963650     9.100235742    -0.590476217
 H       -2.170239384    13.397537798     1.053343739
 H       -3.139003538    15.014940384    -1.435884023
 H       -2.008290274    16.964785597    -1.931366064
 H       -0.248229177    18.630981662    -1.498028291
 H        1.127373398    16.274033202     1.851211632
 H       -0.690989058    14.683301371     1.474191055
 H        3.027068548    19.311520288     1.732730533
 H        3.071572380    17.533905937     1.605398875
 H        1.739060024    18.354965733     2.491563514
 H        5.820101618    20.012283738    -2.491038798
 H        6.705083094    19.959707803    -0.957731416
 H        4.961003377    20.379130561    -0.964077133
 H        5.332754832    15.714244802    -0.809691798
 H        5.416281444    14.636668573     1.403490938
 H        5.933549106    18.487466949     3.261277368
 H        5.822617942    19.570860512     1.074797555
 H        5.625513422    14.709264219     3.703709936
 H        5.989455485    17.523578381     5.007712339
 H        8.548928099    16.836465765     5.723785687
 H       10.497989815    17.635679015     6.945232386
 H        8.656876598    16.551458251    10.681569542
 H        6.686581532    15.752868046     9.506802265
 H       11.691334925    18.038204555     8.908295785
 H       10.331215144    17.250280978    11.575478311
 H       13.368291096    18.732907986     9.802195065
 H       15.333716918    19.540350221    10.976730969
 H       13.465227838    18.469364993    14.758291536
 H       11.522702178    17.659542585    13.539138537
 H        1.755693422    19.379868926    -1.538561028
 H        3.198440623    19.558452332    -0.518056419
 H        3.136589215    16.794432396    -0.683308358
 H        2.279993033    17.145619688    -2.171762059
 H        4.677578976    16.891950744    -2.661354642
 H        4.185358973    18.569178955    -2.999634200
 H        2.263169979    -1.029759640     0.041296995
 H        2.262131339     0.543907019     0.876463951
 H        2.274127398     0.478230205    -0.907350416
 H       18.038495393    21.069589212    13.355613595
 H       16.645499787    21.535841449    12.347508183
 H       17.578857792    20.065013775    11.957883505
 H       14.813256060    20.061772738    15.987617444
 C       16.587425614    21.287963247    16.223014824
 C       14.557515298    21.917790418    14.893972790
 H       17.930321126    18.632824913    15.074205945
 C       16.241012894    17.391138010    15.640221898
 C       17.483925081    17.230358244    13.475548048
 H        4.458939339    15.549057019     8.547981610
 C        4.283070096    17.592907486     7.836710343
 C        3.106322336    15.612278596     6.849780122
 H        5.196175649    13.431318829     5.800302935
 C        7.364341792    13.267213849     5.764412296
 C        5.931440872    13.008542073     7.799182001
 H       -5.276793757    13.817422629    -1.801165233
 C       -3.993743795    12.547372357    -3.013844810
 C       -6.200106710    11.868037266    -2.049971313
 H       -6.209740999    11.809865124     0.972783599
 C       -4.839743167    12.191096252     2.613146690
 C       -6.052939457    13.950266704     1.302902641
 H       -0.096340539    -1.934026814    -1.517443479
 C       -2.126007560    -1.164263248    -1.574690811
 C       -0.194017964    -0.224134300    -2.854930767
 H       -1.782339434    -0.898715291     1.445167742
 C       -0.197202382    -2.367294506     1.639815853
 C       -0.295738060    -0.173996069     2.849294808
 H       17.225269316    20.500071300    16.644010073
 H       16.173357300    21.838656043    17.080243162
 H       17.236794661    21.994776820    15.689611577
 H       13.684142939    21.599462177    14.306770738
 H       15.102041036    22.662929388    14.299027033
 H       14.160513257    22.450903893    15.769577272
 H       15.937360122    17.991295180    16.507187580
 H       16.874479958    16.582885447    16.034200856
 H       15.343003550    16.904479845    15.234344090
 H       18.117591379    17.709097616    12.717866555
 H       16.649217581    16.743153141    12.951281740
 H       18.086303726    16.421087724    13.912660141
 H        5.150382999    17.998558900     8.376576475
 H        3.406548224    17.797724540     8.467943423
 H        4.151086337    18.189383238     6.923586647
 H        3.068603751    14.526111373     6.695766569
 H        2.953603288    16.093162127     5.872773806
 H        2.226647796    15.866062323     7.458589053
 H        7.520840279    13.706977864     4.769985288
 H        7.343301145    12.177787615     5.620556561
 H        8.262364499    13.481025128     6.362286141
 H        4.978648770    13.205930359     8.306646334
 H        6.743139741    13.250148538     8.500008792
 H        5.975931777    11.920340182     7.645514740
 H       -3.086135707    13.163183390    -2.952235338
 H       -4.495686255    12.829421489    -3.949912829
 H       -3.673077398    11.502969735    -3.139158274
 H       -6.982667428    12.024628704    -1.296720230
 H       -5.974266251    10.792856780    -2.083159474
 H       -6.656332494    12.113232146    -3.020174386
 H       -4.394134628    11.187080554     2.650822624
 H       -5.645387716    12.197091859     3.361133946
 H       -4.083433204    12.903927969     2.969536053
 H       -6.553372673    14.247963435     0.372567349
 H       -5.336614772    14.742921490     1.563367731
 H       -6.825066577    13.964713689     2.085365021
 H       -2.494405124    -1.730326698    -0.709882114
 H       -2.398456966    -1.751821128    -2.463613782
 H       -2.701932965    -0.230364743    -1.638345881
 H        0.890597983    -0.089195644    -2.955465428
 H       -0.664426784     0.762440857    -2.975106425
 H       -0.510366507    -0.823016188    -3.720933861
 H       -0.482020278    -2.971788905     0.769060483
 H       -0.661194840    -2.848838583     2.512882908
 H        0.887898826    -2.466846354     1.775647677
 H       -0.644654952     0.868322490     2.876006768
 H        0.783176659    -0.166886074     3.052926404
 H       -0.768737610    -0.677702910     3.704363792

