187   

Si        0.000000000     0.000000000     0.000000000
 C        1.865721194     0.000000000     0.000000000
 C       -0.659331855     1.719152403     0.000000000
 C        0.153104793     2.792873175     0.378981442
 C       -0.346072150     4.094702699     0.379013212
 C       -1.668251341     4.353905313     0.007881430
 C       -2.482300135     3.276734661    -0.366500375
 C       -1.986368141     1.975481858    -0.369313925
 C       -2.228611531     5.701484695    -0.005331430
 C       -1.547264008     6.810112518     0.330520335
 C       -2.092686865     8.163153342     0.322476962
 C       -3.411436458     8.445541018    -0.044914998
 C       -3.887062866     9.756331770    -0.036692088
 C       -3.047799916    10.813943268     0.329670913
 C       -1.726059856    10.534459579     0.698064020
 C       -1.257451300     9.223371950     0.698703192
Si       -3.663374076    12.546464614     0.344386413
 C       -2.256053544    13.709399108     0.304247697
 C       -2.055713760    14.752469121     1.120193401
 C       -0.895371547    15.640567250     1.020855687
 C       -0.768391847    16.709742900     1.920099468
 C        0.314084429    17.571740284     1.858791638
 C        1.296384404    17.416941631     0.855528867
 C        1.172749850    16.340775265    -0.041835659
 C        0.106103178    15.457225962     0.065053444
 N        2.387146648    18.303601080     0.812019971
 C        2.122636350    19.724990892     1.110063101
 C        3.373369993    18.105244495    -0.261271397
 C        0.861250003    20.336842708     0.477378138
 C        0.933241243    20.558911395    -1.046592614
 N       -0.041363599    19.798236151    -1.866423101
 C       -1.282582233    19.530390212    -1.237699677
 C       -2.004714689    20.626112114    -0.722115578
 C       -3.223681197    20.422310760    -0.097572978
 C       -3.775889004    19.136945547     0.009741169
 C       -3.067546294    18.057543275    -0.522957238
 C       -1.840102032    18.246105155    -1.147897333
 C        0.557314228    18.677328755    -2.607689141
 C       -5.067778697    18.985096958     0.681088202
 C       -5.698748675    17.815843727     0.847786145
Si       -7.310971052    17.599717609     1.681678948
 C       -7.129594390    16.252388511     2.921011440
 C       -5.882782249    16.034653834     3.518521257
 C       -5.719000757    15.020472132     4.460301820
 C       -6.798298853    14.216338643     4.838524176
 C       -8.047009896    14.443492964     4.245223170
 C       -8.212657613    15.450046955     3.296907000
 C       -6.672220242    13.144130988     5.819842079
 C       -5.533845218    12.824963713     6.459145379
 C       -5.403482366    11.753949103     7.440766807
 C       -6.476075879    10.941277660     7.816129283
 C       -6.306254762     9.928007920     8.759486906
 C       -5.057525006     9.707159451     9.349130639
 C       -3.979376279    10.519169104     8.971371997
 C       -4.150740960    11.526596905     8.026214682
Si       -4.818966421     8.373514774    10.595526232
 C       -6.449089290     7.747066091    11.250964533
 C       -3.883683520     6.926007153     9.787099855
 C       -3.757624846     9.060145923    12.018677605
 C       -7.840359646    19.187761470     2.584202647
 C       -8.648328039    17.159146044     0.405319355
 C       -4.727910086    12.876103443    -1.196850304
 C       -4.716343355    12.807877449     1.903312416
 C       -0.657015950    -0.903572257    -1.541171861
 C       -0.627114737    -0.913495790     1.547054466
 H        1.195310282     2.654349327     0.679799094
 H        0.308713433     4.912530093     0.674856446
 H       -3.515205698     3.456066089    -0.658632062
 H       -2.668267771     1.175736746    -0.670847821
 H       -3.275257658     5.761784693    -0.315559032
 H       -0.499889980     6.744391256     0.641461433
 H       -4.080399637     7.639298035    -0.338929650
 H       -4.928720898     9.917310582    -0.327806682
 H       -1.028412047    11.322981995     0.998528275
 H       -0.229029732     9.023387808     0.993192575
 H       -1.541512223    13.479228717    -0.504595551
 H       -2.744433524    15.020180659     1.931319587
 H       -1.531382478    16.866273814     2.684601298
 H        0.408544881    18.367849483     2.592023391
 H        1.916374294    16.169518889    -0.813082856
 H        0.049473058    14.616886011    -0.629768604
 H        4.236589670    18.772915781    -0.096380454
 H        2.976999330    18.289542646    -1.272056931
 H        3.763957854    17.071871734    -0.212013603
 H        1.419492245    19.046444377    -3.187502066
 H       -0.179034392    18.294953867    -3.338741966
 H        0.884865103    17.839791939    -1.970883102
 H       -1.597721028    21.629146282    -0.817506539
 H       -3.763811617    21.277901696     0.306862363
 H       -3.467631258    17.043919411    -0.443275360
 H       -1.303319141    17.378615348    -1.524815994
 H       -5.478657352    19.937941842     1.040012844
 H       -5.265740193    16.874538178     0.467772153
 H       -5.003333802    16.636570782     3.263625614
 H       -4.737514408    14.863385039     4.905283218
 H       -8.899507209    13.828638026     4.526690987
 H       -9.208474236    15.580426364     2.865504967
 H       -7.594330490    12.588893196     6.013652753
 H       -4.612359238    13.384937018     6.270075434
 H       -7.458578058    11.093662873     7.373333992
 H       -7.182267471     9.325184014     9.014015398
 H       -2.980267002    10.390935481     9.397449755
 H       -3.300390008    12.143864633     7.741979171
 H        2.040866832    19.803647930     2.223169509
 H        3.015788194    20.326023541     0.830986941
 H       -0.017974137    19.708463657     0.736248054
 H        0.655005615    21.305072461     0.974744994
 H        0.734701380    21.635571802    -1.269370486
 H        1.960420357    20.357820390    -1.415906429
 H        2.264279614    -1.028173252    -0.065019743
 H        2.276284996     0.457902913     0.916763233
 H        2.259815160     0.564060365    -0.864965789
 H       -6.295937014     6.976678060    12.027730611
 H       -7.065416070     7.296460152    10.453482836
 H       -7.033817451     8.566438806    11.707069956
 H       -3.816085461     6.125593508    10.579315023
 C       -4.635765350     6.339978029     8.578244265
 C       -2.452858643     7.286191087     9.348965373
 H       -2.774722342     9.363569712    11.553592958
 C       -4.378022100    10.311546527    12.666004233
 C       -3.458652502     8.023505727    13.116255360
 H       -7.828803553    20.006597716     1.808009139
 C       -9.261618294    19.107226458     3.169350858
 C       -6.864914663    19.578155774     3.709923078
 H       -9.613392068    17.090062205     0.986862118
 C       -8.821375670    18.239725948    -0.676789571
 C       -8.411416746    15.802160507    -0.279954238
 H       -5.642781333    12.224996388    -1.089916610
 C       -5.188233591    14.340867764    -1.295320655
 C       -4.017664245    12.484539557    -2.504862674
 H       -4.883281082    13.922133861     1.998635768
 C       -6.098357410    12.134824706     1.844095422
 C       -3.981509557    12.320684096     3.165696990
 H       -1.781687748    -0.903857041    -1.443704986
 C       -0.297599561    -0.176009942    -2.849307118
 C       -0.193686122    -2.368118622    -1.638529512
 H       -0.156026930    -1.937978742     1.510472870
 C       -0.187196614    -0.231635612     2.855580293
 C       -2.155848747    -1.091837273     1.574040411
 H       -5.645631368     5.985770342     8.820994266
 H       -4.092350994     5.469780802     8.182313019
 H       -4.723819549     7.051573483     7.744228021
 H       -1.817506931     7.631643400    10.174048619
 H       -2.427965533     8.050975686     8.559516718
 H       -1.954951819     6.399524959     8.929519242
 H       -4.567668218    11.122347151    11.948124332
 H       -3.693949362    10.724010827    13.421319804
 H       -5.322479368    10.102817683    13.185733295
 H       -2.951805047     7.125458718    12.739977428
 H       -4.358663204     7.698676528    13.654940233
 H       -2.789303913     8.459788329    13.872031180
 H      -10.037259816    18.949263539     2.409254371
 H       -9.515011434    20.051924699     3.672457361
 H       -9.369273668    18.319743321     3.928577833
 H       -5.826034442    19.693763183     3.372148741
 H       -6.862428212    18.855847305     4.539073346
 H       -7.157727187    20.544053037     4.144923546
 H       -9.090295302    19.223760735    -0.271904041
 H       -9.632734109    17.958993095    -1.363356083
 H       -7.923890497    18.370342625    -1.298832458
 H       -8.253117446    14.973860376     0.424731817
 H       -7.556931070    15.822806606    -0.971297733
 H       -9.287930345    15.527310906    -0.883608430
 H       -5.746763547    14.676374263    -0.410140454
 H       -5.860796207    14.467897966    -2.155153442
 H       -4.354672009    15.040610337    -1.451826219
 H       -3.695613456    11.434232561    -2.528243030
 H       -3.136976895    13.105675142    -2.717591552
 H       -4.699428751    12.613752221    -3.357196824
 H       -6.719062275    12.484293908     1.010222931
 H       -6.662857980    12.372325569     2.760897841
 H       -6.042535305    11.039764197     1.794717907
 H       -3.030106334    12.837682813     3.345518853
 H       -3.776259854    11.240539860     3.156090732
 H       -4.608773316    12.495337825     4.053292710
 H       -0.647003897     0.866160067    -2.876287153
 H       -0.770240963    -0.680564076    -3.703925667
 H        0.781321059    -0.167815535    -3.053386901
 H       -0.478431797    -2.973216344    -0.768148626
 H        0.891599160    -2.466051066    -1.773564598
 H       -0.656131852    -2.850377827    -2.512036800
 H        0.901914170    -0.139494370     2.954991376
 H       -0.525560380    -0.821236540     3.719670217
 H       -0.619335142     0.771831590     2.980131368
 H       -2.544511810    -1.653163171     0.715014193
 H       -2.696195605    -0.135800953     1.624707467
 H       -2.452078815    -1.658241372     2.468955283

