187   

Si        0.000000000     0.000000000     0.000000000
 C        1.865096588     0.000000000     0.000000000
 C       -0.672095969     1.714132694     0.000000000
 C        0.062573684     2.766791943     0.556383443
 C       -0.446367076     4.065183350     0.556454627
 C       -1.701742430     4.340426993     0.007723068
 C       -2.439354724     3.283923595    -0.542570822
 C       -1.934118919     1.986525053    -0.543697491
 C       -2.275600699     5.681714026    -0.015207220
 C       -1.677895021     6.780273429     0.476610976
 C       -2.255938310     8.120029030     0.451392192
 C       -3.512959287     8.386443324    -0.099781878
 C       -4.028771246     9.681223988    -0.103673648
 C       -3.294995020    10.740129472     0.442923877
 C       -2.036912071    10.476927422     0.997348696
 C       -1.526445936     9.180820777     1.003330713
Si       -3.980721477    12.444540471     0.434600610
 C       -2.665618470    13.664023765     0.780791307
 C       -2.707702940    14.650462903     1.685891569
 C       -1.608284302    15.593570208     1.907070483
 C       -1.750758779    16.594007542     2.881420195
 C       -0.736293034    17.505677339     3.122529536
 C        0.443566760    17.476742545     2.348903354
 C        0.588044280    16.478315251     1.372046669
 C       -0.418680193    15.539463595     1.177816587
 N        1.455071472    18.423772340     2.626101441
 C        1.016447412    19.833979988     2.709223202
 C        2.728057176    18.257803541     1.905030771
 C       -0.055215977    20.274587176     1.697590250
 C        0.348893748    20.019144533     0.234505264
 N       -0.712380393    20.363799624    -0.737898187
 C       -1.962857490    19.744715678    -0.474124596
 C       -1.986837163    18.346306223    -0.301210175
 C       -3.180170541    17.695115113    -0.042178548
 C       -4.395384996    18.395006298    -0.008510372
 C       -4.372102213    19.775476998    -0.212595750
 C       -3.176293054    20.448605802    -0.444490798
 C       -0.752420004    21.806105394    -1.035258051
 C       -5.624380436    17.649801263     0.270848794
 C       -6.841085077    18.205892698     0.328980228
Si       -8.406155543    17.329120106     0.672540250
 C       -9.331866877    18.210169485     1.994958861
 C       -8.648308135    19.018569416     2.909714155
 C       -9.342009241    19.690185582     3.915452266
 C      -10.728050689    19.557692146     4.038163012
 C      -11.408536985    18.741342373     3.125066295
 C      -10.720128258    18.074448339     2.114875694
 C      -11.495152639    20.241064424     5.074422725
 C      -10.967919306    21.050001733     6.009144116
 C      -11.735828468    21.732981319     7.045062206
 C      -13.122183719    21.605847437     7.163297057
 C      -13.816976788    22.277186255     8.169348919
 C      -13.137181257    23.086384322     9.085080295
 C      -11.746308641    23.214857969     8.969361064
 C      -11.056565208    22.548229632     7.960614275
Si      -14.039539036    23.978957203    10.418480621
 C      -15.792001530    23.363831777    10.591784838
 C      -13.090620314    23.730428992    12.049889465
 C      -14.082537019    25.839776722    10.019557805
 C       -9.425717030    17.225060512    -0.926185484
 C       -8.062369573    15.566445564     1.306675265
 C       -4.668833821    12.818976919    -1.302897256
 C       -5.397574697    12.592994017     1.689437159
 C       -0.645782819    -0.925731029    -1.533400649
 C       -0.630714645    -0.904524937     1.551316313
 H        1.050472285     2.613368618     0.999593401
 H        0.146956843     4.867324884     0.991706860
 H       -3.420009977     3.475893643    -0.973869404
 H       -2.557008269     1.203530143    -0.984822510
 H       -3.265588286     5.746691057    -0.476379522
 H       -0.688259907     6.716898253     0.938333295
 H       -4.101317276     7.579653447    -0.532807183
 H       -5.016756459     9.828168006    -0.549000168
 H       -1.422850480    11.266089028     1.443032422
 H       -0.547879659     8.993902182     1.441835983
 H       -1.779107838    13.523971841     0.138025598
 H       -3.571661785    14.826588311     2.339261983
 H       -2.669862435    16.651967134     3.466029918
 H       -0.848382164    18.250003335     3.906589145
 H        1.480913736    16.423539512     0.757660783
 H       -0.274279202    14.762935017     0.424650363
 H        3.482938786    18.931021689     2.347584979
 H        2.667790675    18.462358099     0.824847594
 H        3.100799753    17.228040107     2.053719420
 H        0.252186859    22.136129132    -1.350798267
 H       -1.076349128    22.432588553    -0.190043827
 H       -1.428395830    21.981202839    -1.891568888
 H       -1.061075393    17.774760435    -0.353061054
 H       -3.172492347    16.612797390     0.113958735
 H       -5.301260303    20.345950278    -0.189516841
 H       -3.199480989    21.524167491    -0.585680295
 H       -5.449806878    16.577523682     0.437471769
 H       -6.980854008    19.284876684     0.149116665
 H       -7.562719620    19.155733675     2.864428167
 H       -8.790127770    20.320262078     4.610612761
 H      -12.487846186    18.625662167     3.203135335
 H      -11.303557858    17.454008353     1.429436285
 H      -12.571970070    20.050036348     5.047156872
 H       -9.891167445    21.241167470     6.036827381
 H      -13.674555357    20.978723084     6.465951672
 H      -14.901035996    22.139748848     8.210118124
 H      -11.162133281    23.832917575     9.657097044
 H       -9.976738245    22.661748430     7.885799726
 H        0.619299912    19.981398733     3.743559825
 H        1.906158879    20.495696347     2.626965285
 H       -1.008879732    19.743834278     1.908819668
 H       -0.278681665    21.346789765     1.848023229
 H        1.268451284    20.585262051    -0.023321127
 H        0.593847815    18.940809532     0.086841090
 H        2.263170432    -1.029358212    -0.046011744
 H        2.277339929     0.475938017     0.906699539
 H        2.258576078     0.548482529    -0.875424971
 H      -16.313773930    23.875861745    11.419991249
 H      -15.811909423    22.280009832    10.807226856
 H      -16.378901554    23.535888923     9.672579087
 H      -12.063199414    24.166040733    11.879458552
 C      -13.721878809    24.465819330    13.245414930
 C      -12.917405858    22.243677569    12.409631242
 H      -14.700550216    26.312009130    10.837053289
 C      -12.695128944    26.506076347    10.026193123
 C      -14.765758074    26.137654122     8.672216863
 H      -10.361884210    16.652071869    -0.664338134
 C       -9.847972012    18.610071874    -1.447602848
 C       -8.700697221    16.463591511    -2.050550870
 H       -7.365988646    15.089099843     0.556455567
 C       -7.362424288    15.576193738     2.678254234
 C       -9.325884275    14.693855545     1.399754264
 H       -5.492532961    12.067745380    -1.475133675
 C       -5.271594364    14.227712212    -1.433016850
 C       -3.611077749    12.624907052    -2.403938912
 H       -5.696749054    13.683567160     1.682491122
 C       -6.637997103    11.760129325     1.321176154
 C       -4.961574867    12.223644365     3.118459806
 H       -1.771184904    -0.926067669    -1.445411173
 C       -0.274855936    -0.219043777    -2.849836655
 C       -0.181366884    -2.391574502    -1.604992102
 H       -0.166313786    -1.932104671     1.519338889
 C       -0.186972867    -0.220427147     2.857255163
 C       -2.160736959    -1.071506985     1.575861130
 H      -13.812265609    25.548839871    13.091268318
 H      -13.095691807    24.334185813    14.139917100
 H      -14.716201962    24.081212609    13.508365598
 H      -12.419791684    21.661577199    11.620708053
 H      -13.867737783    21.743953164    12.639512906
 H      -12.290100154    22.143252649    13.306845746
 H      -12.168363449    26.407811429    10.983769191
 H      -12.796663003    27.585639881     9.842142846
 H      -12.034505513    26.122747328     9.235807256
 H      -15.797617509    25.767993310     8.614834970
 H      -14.216264714    25.724513299     7.814055679
 H      -14.819304952    27.223584587     8.508805908
 H      -10.411841311    19.200035113    -0.711494115
 H      -10.506597047    18.499641204    -2.320772965
 H       -8.996585372    19.220179765    -1.780030043
 H       -8.435552326    15.433430766    -1.779044281
 H       -7.782380966    16.968374731    -2.384346558
 H       -9.349308073    16.391444397    -2.935036342
 H       -6.400654243    16.107867950     2.673888558
 H       -7.151385392    14.546585338     3.003837802
 H       -7.980886563    16.021712256     3.470750160
 H       -9.836503133    14.561647405     0.437538759
 H      -10.061210409    15.079313872     2.119746593
 H       -9.059817887    13.684087508     1.746215029
 H       -6.107114278    14.406705556    -0.743153439
 H       -5.674814582    14.374146781    -2.445505738
 H       -4.532143686    15.028327050    -1.283246614
 H       -3.156678495    11.624467134    -2.402765619
 H       -2.796544109    13.360559510    -2.349981524
 H       -4.071419458    12.747931529    -3.394669161
 H       -7.075185312    12.033736937     0.352330645
 H       -7.429576262    11.915269199     2.069298219
 H       -6.441320360    10.679174297     1.309697869
 H       -4.102249975    12.803977691     3.481650668
 H       -4.704002802    11.159864220     3.223670422
 H       -5.782357353    12.410631952     3.825271004
 H       -0.617543637     0.824531622    -2.895228614
 H       -0.744297344    -0.734067756    -3.699984882
 H        0.805524116    -0.219919120    -3.046934267
 H       -0.475913712    -2.984332334    -0.729348282
 H        0.905326555    -2.491543996    -1.726609307
 H       -0.634223252    -2.886232411    -2.476583883
 H        0.902728793    -0.136584684     2.957339901
 H       -0.530562731    -0.804144436     3.723397251
 H       -0.612264819     0.786427021     2.977625197
 H       -2.550231569    -1.642448521     0.723510914
 H       -2.694969455    -0.111222966     1.609634076
 H       -2.464436409    -1.622535320     2.477812040

